145865291
  -OEChem-03012020222D

102104  0     1  0  0  0  0  0999 V2000
   10.5109    0.6920    0.0000 S   0  0  0  0  0  0  0  0  0  0  0  0
   13.3364    2.3557    0.0000 O   0  0  0  0  0  0  0  0  0  0  0  0
   10.5109    1.6920    0.0000 O   0  0  0  0  0  0  0  0  0  0  0  0
   10.5109   -2.3080    0.0000 O   0  0  0  0  0  0  0  0  0  0  0  0
    9.6448   -0.8080    0.0000 O   0  0  0  0  0  0  0  0  0  0  0  0
    9.6448    2.1920    0.0000 O   0  0  0  0  0  0  0  0  0  0  0  0
    7.0468    4.6920    0.0000 O   0  0  0  0  0  0  0  0  0  0  0  0
    4.4487    2.1920    0.0000 O   0  0  0  0  0  0  0  0  0  0  0  0
    2.0000    4.0284    0.0000 O   0  0  0  0  0  0  0  0  0  0  0  0
   15.0577    1.8944    0.0000 N   0  0  0  0  0  0  0  0  0  0  0  0
   12.2429    1.6920    0.0000 N   0  0  0  0  0  0  0  0  0  0  0  0
   10.5109    3.6920    0.0000 N   0  0  0  0  0  0  0  0  0  0  0  0
    7.9128    3.1920    0.0000 N   0  0  0  0  0  0  0  0  0  0  0  0
    5.3147    3.6920    0.0000 N   0  0  0  0  0  0  0  0  0  0  0  0
    2.6691    3.2853    0.0000 N   0  0  0  0  0  0  0  0  0  0  0  0
   13.9750    0.6920    0.0000 C   0  0  2  0  0  0  0  0  0  0  0  0
   13.1090    0.1920    0.0000 C   0  0  0  0  0  0  0  0  0  0  0  0
   14.8885    0.2853    0.0000 C   0  0  0  0  0  0  0  0  0  0  0  0
   14.0795    1.6865    0.0000 C   0  0  1  0  0  0  0  0  0  0  0  0
   12.2429    0.6920    0.0000 C   0  0  1  0  0  0  0  0  0  0  0  0
   15.5577    1.0284    0.0000 C   0  0  0  0  0  0  0  0  0  0  0  0
   11.3769    0.1920    0.0000 C   0  0  2  0  0  0  0  0  0  0  0  0
   11.3769   -0.8080    0.0000 C   0  0  0  0  0  0  0  0  0  0  0  0
   11.3769    2.1920    0.0000 C   0  0  0  0  0  0  0  0  0  0  0  0
   11.3769    3.1920    0.0000 C   0  0  2  0  0  0  0  0  0  0  0  0
   12.2429    3.6920    0.0000 C   0  0  0  0  0  0  0  0  0  0  0  0
   12.2429    4.6920    0.0000 C   0  0  0  0  0  0  0  0  0  0  0  0
   10.5109   -1.3080    0.0000 C   0  0  0  0  0  0  0  0  0  0  0  0
    8.7788    3.6920    0.0000 C   0  0  2  0  0  0  0  0  0  0  0  0
    9.6448    3.1920    0.0000 C   0  0  0  0  0  0  0  0  0  0  0  0
   13.1090    5.1920    0.0000 C   0  0  0  0  0  0  0  0  0  0  0  0
   11.3769    5.1920    0.0000 C   0  0  0  0  0  0  0  0  0  0  0  0
    8.7788    4.6920    0.0000 C   0  0  0  0  0  0  0  0  0  0  0  0
    7.9128    5.1920    0.0000 C   0  0  0  0  0  0  0  0  0  0  0  0
    9.6448    5.1920    0.0000 C   0  0  0  0  0  0  0  0  0  0  0  0
    9.6448   -2.8080    0.0000 C   0  0  0  0  0  0  0  0  0  0  0  0
    7.0468    3.6920    0.0000 C   0  0  0  0  0  0  0  0  0  0  0  0
    6.1808    3.1920    0.0000 C   0  0  2  0  0  0  0  0  0  0  0  0
    9.6448   -3.8080    0.0000 C   0  0  0  0  0  0  0  0  0  0  0  0
    6.1808    2.1920    0.0000 C   0  0  0  0  0  0  0  0  0  0  0  0
   10.5109   -4.3080    0.0000 C   0  0  0  0  0  0  0  0  0  0  0  0
    8.7788   -4.3080    0.0000 C   0  0  0  0  0  0  0  0  0  0  0  0
    4.4487    3.1920    0.0000 C   0  0  0  0  0  0  0  0  0  0  0  0
   10.5109   -5.3080    0.0000 C   0  0  0  0  0  0  0  0  0  0  0  0
    8.7788   -5.3080    0.0000 C   0  0  0  0  0  0  0  0  0  0  0  0
    9.6448   -5.8080    0.0000 C   0  0  0  0  0  0  0  0  0  0  0  0
    3.5827    3.6920    0.0000 C   0  0  0  0  0  0  0  0  0  0  0  0
    3.4782    4.6865    0.0000 C   0  0  0  0  0  0  0  0  0  0  0  0
    2.5000    4.8944    0.0000 C   0  0  0  0  0  0  0  0  0  0  0  0
    2.0933    5.8080    0.0000 C   0  0  0  0  0  0  0  0  0  0  0  0
   14.0074    0.0729    0.0000 H   0  0  0  0  0  0  0  0  0  0  0  0
   12.7104   -0.2829    0.0000 H   0  0  0  0  0  0  0  0  0  0  0  0
   13.5075   -0.2829    0.0000 H   0  0  0  0  0  0  0  0  0  0  0  0
   14.5785   -0.2517    0.0000 H   0  0  0  0  0  0  0  0  0  0  0  0
   15.3901   -0.0792    0.0000 H   0  0  0  0  0  0  0  0  0  0  0  0
   14.2400    2.2854    0.0000 H   0  0  0  0  0  0  0  0  0  0  0  0
   12.7799    1.0020    0.0000 H   0  0  0  0  0  0  0  0  0  0  0  0
   15.9725    0.5677    0.0000 H   0  0  0  0  0  0  0  0  0  0  0  0
   16.0592    1.3928    0.0000 H   0  0  0  0  0  0  0  0  0  0  0  0
   15.3098    2.4608    0.0000 H   0  0  0  0  0  0  0  0  0  0  0  0
   10.8400   -0.1180    0.0000 H   0  0  0  0  0  0  0  0  0  0  0  0
   12.7799    2.0020    0.0000 H   0  0  0  0  0  0  0  0  0  0  0  0
   11.5890   -1.3906    0.0000 H   0  0  0  0  0  0  0  0  0  0  0  0
   11.9875   -0.7003    0.0000 H   0  0  0  0  0  0  0  0  0  0  0  0
   13.4653    2.9621    0.0000 H   0  0  0  0  0  0  0  0  0  0  0  0
   10.8400    2.8820    0.0000 H   0  0  0  0  0  0  0  0  0  0  0  0
   12.4550    3.1094    0.0000 H   0  0  0  0  0  0  0  0  0  0  0  0
   12.8535    3.7997    0.0000 H   0  0  0  0  0  0  0  0  0  0  0  0
    9.9739    0.3820    0.0000 H   0  0  0  0  0  0  0  0  0  0  0  0
   12.7799    4.3820    0.0000 H   0  0  0  0  0  0  0  0  0  0  0  0
   10.5109    4.3120    0.0000 H   0  0  0  0  0  0  0  0  0  0  0  0
    8.2419    4.0020    0.0000 H   0  0  0  0  0  0  0  0  0  0  0  0
   13.4190    4.6551    0.0000 H   0  0  0  0  0  0  0  0  0  0  0  0
   13.6459    5.5020    0.0000 H   0  0  0  0  0  0  0  0  0  0  0  0
   12.7990    5.7290    0.0000 H   0  0  0  0  0  0  0  0  0  0  0  0
   11.6869    5.7290    0.0000 H   0  0  0  0  0  0  0  0  0  0  0  0
   10.8400    5.5020    0.0000 H   0  0  0  0  0  0  0  0  0  0  0  0
   11.0669    4.6551    0.0000 H   0  0  0  0  0  0  0  0  0  0  0  0
    9.3158    4.3820    0.0000 H   0  0  0  0  0  0  0  0  0  0  0  0
    7.9128    2.5720    0.0000 H   0  0  0  0  0  0  0  0  0  0  0  0
    8.2228    5.7290    0.0000 H   0  0  0  0  0  0  0  0  0  0  0  0
    7.3759    5.5020    0.0000 H   0  0  0  0  0  0  0  0  0  0  0  0
    7.6028    4.6551    0.0000 H   0  0  0  0  0  0  0  0  0  0  0  0
    9.9548    4.6551    0.0000 H   0  0  0  0  0  0  0  0  0  0  0  0
   10.1818    5.5020    0.0000 H   0  0  0  0  0  0  0  0  0  0  0  0
    9.3348    5.7290    0.0000 H   0  0  0  0  0  0  0  0  0  0  0  0
    9.4328   -2.2254    0.0000 H   0  0  0  0  0  0  0  0  0  0  0  0
    9.0343   -2.9156    0.0000 H   0  0  0  0  0  0  0  0  0  0  0  0
    6.1808    3.8120    0.0000 H   0  0  0  0  0  0  0  0  0  0  0  0
    5.5608    2.1920    0.0000 H   0  0  0  0  0  0  0  0  0  0  0  0
    6.1808    1.5720    0.0000 H   0  0  0  0  0  0  0  0  0  0  0  0
    6.8008    2.1920    0.0000 H   0  0  0  0  0  0  0  0  0  0  0  0
    5.3147    4.3120    0.0000 H   0  0  0  0  0  0  0  0  0  0  0  0
   11.0478   -3.9980    0.0000 H   0  0  0  0  0  0  0  0  0  0  0  0
    8.2419   -3.9980    0.0000 H   0  0  0  0  0  0  0  0  0  0  0  0
   11.0478   -5.6180    0.0000 H   0  0  0  0  0  0  0  0  0  0  0  0
    8.2419   -5.6180    0.0000 H   0  0  0  0  0  0  0  0  0  0  0  0
    9.6448   -6.4280    0.0000 H   0  0  0  0  0  0  0  0  0  0  0  0
    3.9389    5.1014    0.0000 H   0  0  0  0  0  0  0  0  0  0  0  0
    2.6597    6.0602    0.0000 H   0  0  0  0  0  0  0  0  0  0  0  0
    1.8411    6.3744    0.0000 H   0  0  0  0  0  0  0  0  0  0  0  0
    1.5269    5.5558    0.0000 H   0  0  0  0  0  0  0  0  0  0  0  0
 22  1  1  6  0  0  0
  1 69  1  0  0  0  0
 19  2  1  1  0  0  0
  2 65  1  0  0  0  0
  3 24  2  0  0  0  0
  4 28  1  0  0  0  0
  4 36  1  0  0  0  0
  5 28  2  0  0  0  0
  6 30  2  0  0  0  0
  7 37  2  0  0  0  0
  8 43  2  0  0  0  0
  9 15  1  0  0  0  0
  9 49  1  0  0  0  0
 10 19  1  0  0  0  0
 10 21  1  0  0  0  0
 10 60  1  0  0  0  0
 20 11  1  1  0  0  0
 11 24  1  0  0  0  0
 11 62  1  0  0  0  0
 25 12  1  1  0  0  0
 12 30  1  0  0  0  0
 12 71  1  0  0  0  0
 29 13  1  1  0  0  0
 13 37  1  0  0  0  0
 13 80  1  0  0  0  0
 38 14  1  6  0  0  0
 14 43  1  0  0  0  0
 14 93  1  0  0  0  0
 15 47  2  0  0  0  0
 16 17  1  1  0  0  0
 16 18  1  0  0  0  0
 16 19  1  0  0  0  0
 16 51  1  0  0  0  0
 17 20  1  0  0  0  0
 17 52  1  0  0  0  0
 17 53  1  0  0  0  0
 18 21  1  0  0  0  0
 18 54  1  0  0  0  0
 18 55  1  0  0  0  0
 19 56  1  0  0  0  0
 20 22  1  0  0  0  0
 20 57  1  0  0  0  0
 21 58  1  0  0  0  0
 21 59  1  0  0  0  0
 22 23  1  0  0  0  0
 22 61  1  0  0  0  0
 23 28  1  0  0  0  0
 23 63  1  0  0  0  0
 23 64  1  0  0  0  0
 24 25  1  0  0  0  0
 25 26  1  0  0  0  0
 25 66  1  0  0  0  0
 26 27  1  0  0  0  0
 26 67  1  0  0  0  0
 26 68  1  0  0  0  0
 27 31  1  0  0  0  0
 27 32  1  0  0  0  0
 27 70  1  0  0  0  0
 29 30  1  0  0  0  0
 29 33  1  0  0  0  0
 29 72  1  0  0  0  0
 31 73  1  0  0  0  0
 31 74  1  0  0  0  0
 31 75  1  0  0  0  0
 32 76  1  0  0  0  0
 32 77  1  0  0  0  0
 32 78  1  0  0  0  0
 33 34  1  0  0  0  0
 33 35  1  0  0  0  0
 33 79  1  0  0  0  0
 34 81  1  0  0  0  0
 34 82  1  0  0  0  0
 34 83  1  0  0  0  0
 35 84  1  0  0  0  0
 35 85  1  0  0  0  0
 35 86  1  0  0  0  0
 36 39  1  0  0  0  0
 36 87  1  0  0  0  0
 36 88  1  0  0  0  0
 37 38  1  0  0  0  0
 38 40  1  0  0  0  0
 38 89  1  0  0  0  0
 39 41  2  0  0  0  0
 39 42  1  0  0  0  0
 40 90  1  0  0  0  0
 40 91  1  0  0  0  0
 40 92  1  0  0  0  0
 41 44  1  0  0  0  0
 41 94  1  0  0  0  0
 42 45  2  0  0  0  0
 42 95  1  0  0  0  0
 43 47  1  0  0  0  0
 44 46  2  0  0  0  0
 44 96  1  0  0  0  0
 45 46  1  0  0  0  0
 45 97  1  0  0  0  0
 46 98  1  0  0  0  0
 47 48  1  0  0  0  0
 48 49  2  0  0  0  0
 48 99  1  0  0  0  0
 49 50  1  0  0  0  0
 50100  1  0  0  0  0
 50101  1  0  0  0  0
 50102  1  0  0  0  0
M  END
> <PUBCHEM_COMPOUND_CID>
145865291

> <PUBCHEM_COMPOUND_CANONICALIZED>
1

> <PUBCHEM_CACTVS_COMPLEXITY>
1140

> <PUBCHEM_CACTVS_HBOND_ACCEPTOR>
11

> <PUBCHEM_CACTVS_HBOND_DONOR>
7

> <PUBCHEM_CACTVS_ROTATABLE_BOND>
19

> <PUBCHEM_CACTVS_SUBSKEYS>
AAADcfB/vABAAAAAAAAAAAAAAAAAAWLAAAAwAAAAAAAAAAABwAAAHgQUCAAADSzl3gayjJLQBgSpA6XyWgCCAAAmIgAomKG+bNsIdjqAtbuWcYhm1hmI6ce/yOCOAAAAAAAAAAAAAAAAAAAAAAAAAAAAAA==

> <PUBCHEM_IUPAC_OPENEYE_NAME>
benzyl (3S,4S)-5-[(2R,3S)-2-hydroxypyrrolidin-3-yl]-4-[[(2S)-4-methyl-2-[[(2S)-3-methyl-2-[[(2S)-2-[(5-methylisoxazole-3-carbonyl)amino]propanoyl]amino]butanoyl]amino]pentanoyl]amino]-3-sulfanyl-pentanoate

> <PUBCHEM_IUPAC_CAS_NAME>
(3S,4S)-5-[(2R,3S)-2-hydroxy-3-pyrrolidinyl]-3-mercapto-4-[[(2S)-4-methyl-2-[[(2S)-3-methyl-2-[[(2S)-2-[[(5-methyl-3-isoxazolyl)-oxomethyl]amino]-1-oxopropyl]amino]-1-oxobutyl]amino]-1-oxopentyl]amino]pentanoic acid (phenylmethyl) ester

> <PUBCHEM_IUPAC_NAME_MARKUP>
benzyl (3<I>S</I>,4<I>S</I>)-5-[(2<I>R</I>,3<I>S</I>)-2-hydroxypyrrolidin-3-yl]-4-[[(2<I>S</I>)-4-methyl-2-[[(2<I>S</I>)-3-methyl-2-[[(2<I>S</I>)-2-[(5-methyl-1,2-oxazole-3-carbonyl)amino]propanoyl]amino]butanoyl]amino]pentanoyl]amino]-3-sulfanylpentanoate

> <PUBCHEM_IUPAC_NAME>
benzyl (3S,4S)-5-[(2R,3S)-2-hydroxypyrrolidin-3-yl]-4-[[(2S)-4-methyl-2-[[(2S)-3-methyl-2-[[(2S)-2-[(5-methyl-1,2-oxazole-3-carbonyl)amino]propanoyl]amino]butanoyl]amino]pentanoyl]amino]-3-sulfanylpentanoate

> <PUBCHEM_IUPAC_SYSTEMATIC_NAME>
(phenylmethyl) (3S,4S)-4-[[(2S)-4-methyl-2-[[(2S)-3-methyl-2-[[(2S)-2-[(5-methyl-1,2-oxazol-3-yl)carbonylamino]propanoyl]amino]butanoyl]amino]pentanoyl]amino]-5-[(2R,3S)-2-oxidanylpyrrolidin-3-yl]-3-sulfanyl-pentanoate

> <PUBCHEM_IUPAC_TRADITIONAL_NAME>
(3S,4S)-5-[(2R,3S)-2-hydroxypyrrolidin-3-yl]-3-mercapto-4-[[(2S)-4-methyl-2-[[(2S)-3-methyl-2-[[(2S)-2-[(5-methylisoxazole-3-carbonyl)amino]propanoyl]amino]butanoyl]amino]pentanoyl]amino]valeric acid benzyl ester

> <PUBCHEM_IUPAC_INCHI>
InChI=1S/C35H52N6O8S/c1-19(2)14-26(39-35(47)30(20(3)4)40-31(43)22(6)37-34(46)27-15-21(5)49-41-27)33(45)38-25(16-24-12-13-36-32(24)44)28(50)17-29(42)48-18-23-10-8-7-9-11-23/h7-11,15,19-20,22,24-26,28,30,32,36,44,50H,12-14,16-18H2,1-6H3,(H,37,46)(H,38,45)(H,39,47)(H,40,43)/t22-,24-,25-,26-,28-,30-,32+/m0/s1

> <PUBCHEM_IUPAC_INCHIKEY>
ZFBJBSRQHSPOKY-BFVWGAKVSA-N

> <PUBCHEM_XLOGP3_AA>
3.4

> <PUBCHEM_EXACT_MASS>
716.356734

> <PUBCHEM_MOLECULAR_FORMULA>
C35H52N6O8S

> <PUBCHEM_MOLECULAR_WEIGHT>
716.9

> <PUBCHEM_OPENEYE_CAN_SMILES>
CC1=CC(=NO1)C(=O)NC(C)C(=O)NC(C(C)C)C(=O)NC(CC(C)C)C(=O)NC(CC2CCNC2O)C(CC(=O)OCC3=CC=CC=C3)S

> <PUBCHEM_OPENEYE_ISO_SMILES>
CC1=CC(=NO1)C(=O)N[C@@H](C)C(=O)N[C@@H](C(C)C)C(=O)N[C@@H](CC(C)C)C(=O)N[C@@H](C[C@@H]2CCN[C@@H]2O)[C@H](CC(=O)OCC3=CC=CC=C3)S

> <PUBCHEM_CACTVS_TPSA>
202

> <PUBCHEM_MONOISOTOPIC_WEIGHT>
716.356734

> <PUBCHEM_TOTAL_CHARGE>
0

> <PUBCHEM_HEAVY_ATOM_COUNT>
50

> <PUBCHEM_ATOM_DEF_STEREO_COUNT>
7

> <PUBCHEM_ATOM_UDEF_STEREO_COUNT>
0

> <PUBCHEM_BOND_DEF_STEREO_COUNT>
0

> <PUBCHEM_BOND_UDEF_STEREO_COUNT>
0

> <PUBCHEM_ISOTOPIC_ATOM_COUNT>
0

> <PUBCHEM_COMPONENT_COUNT>
1

> <PUBCHEM_CACTVS_TAUTO_COUNT>
-1

> <PUBCHEM_COORDINATE_TYPE>
1
5
255

> <PUBCHEM_BONDANNOTATIONS>
22  1  6
20  11  5
25  12  5
29  13  5
38  14  6
15  47  8
16  17  5
19  2  5
39  41  8
39  42  8
41  44  8
42  45  8
44  46  8
45  46  8
47  48  8
48  49  8
9  15  8
9  49  8

$$$$
