REMARK  7 active torsions:
REMARK  status: ('A' for Active; 'I' for Inactive)
REMARK    1  A    between atoms: C2_2  and  N1_3 
REMARK       I    between atoms: N1_3  and  C3_4 
REMARK    2  A    between atoms: C3_4  and  C4_6 
REMARK    3  A    between atoms: N2_8  and  C6_9 
REMARK    4  A    between atoms: C6_9  and  C7_10 
REMARK    5  A    between atoms: N3_22  and  C19_23 
REMARK    6  A    between atoms: C19_23  and  C20_24 
REMARK    7  A    between atoms: C20_24  and  O2_26 
ROOT
HETATM    1  C1  UNL     1      -2.056   4.260  -0.159  1.00  0.00     0.026 C 
HETATM    2  C2  UNL     1      -0.696   3.596  -0.229  1.00  0.00     0.118 C 
ENDROOT
BRANCH   2   3
HETATM    3  N1  UNL     1      -0.660   2.338   0.475  1.00  0.00    -0.360 N 
HETATM    4  C3  UNL     1      -1.498   1.249   0.139  1.00  0.00     0.253 C 
HETATM    5  O1  UNL     1      -2.303   1.389  -0.812  1.00  0.00    -0.271 OA
HETATM    6  H6  UNL     1       0.005   2.219   1.263  1.00  0.00     0.162 HD
BRANCH   4   7
HETATM    7  C4  UNL     1      -1.480  -0.051   0.847  1.00  0.00     0.342 C 
HETATM    8  C5  UNL     1      -0.100  -0.610   1.009  1.00  0.00     0.318 C 
HETATM    9  N2  UNL     1       0.405  -1.331  -0.087  1.00  0.00     0.097 NA
HETATM   10  C17 UNL     1      -0.561  -1.963  -0.928  1.00  0.00     0.303 C 
HETATM   11  C18 UNL     1      -1.915  -2.116  -0.321  1.00  0.00     0.303 C 
HETATM   12  N3  UNL     1      -2.443  -0.944   0.297  1.00  0.00     0.108 N 
BRANCH   9  13
HETATM   13  C6  UNL     1       1.420  -0.708  -0.879  1.00  0.00     0.312 C 
BRANCH  13  14
HETATM   14  C7  UNL     1       2.688  -0.506  -0.241  1.00  0.00    -0.019 A 
HETATM   15  C8  UNL     1       2.960  -0.941   1.025  1.00  0.00     0.010 A 
HETATM   16  C9  UNL     1       4.222  -0.753   1.616  1.00  0.00     0.002 A 
HETATM   17  C10 UNL     1       5.240  -0.121   0.944  1.00  0.00     0.012 A 
HETATM   18  C11 UNL     1       4.982   0.324  -0.334  1.00  0.00    -0.025 A 
HETATM   19  C12 UNL     1       6.001   0.971  -1.041  1.00  0.00     0.012 A 
HETATM   20  C16 UNL     1       3.748   0.139  -0.909  1.00  0.00    -0.018 A 
HETATM   21  C13 UNL     1       5.734   1.410  -2.312  1.00  0.00     0.001 A 
HETATM   22  C14 UNL     1       4.489   1.225  -2.897  1.00  0.00     0.001 A 
HETATM   23  C15 UNL     1       3.481   0.582  -2.189  1.00  0.00     0.013 A 
ENDBRANCH  13  14
ENDBRANCH   9  13
BRANCH  12  24
HETATM   24  C19 UNL     1      -3.552  -1.148   1.168  1.00  0.00     0.304 C 
BRANCH  24  25
HETATM   25  C20 UNL     1      -4.634  -2.044   0.693  1.00  0.00     0.142 C 
HETATM   26  C21 UNL     1      -5.690  -2.086   1.809  1.00  0.00     0.041 C 
BRANCH  25  27
HETATM   27  O2  UNL     1      -4.300  -3.335   0.410  1.00  0.00    -0.394 OA
HETATM   28  H29 UNL     1      -4.765  -3.691  -0.413  1.00  0.00     0.210 HD
ENDBRANCH  25  27
ENDBRANCH  24  25
ENDBRANCH  12  24
ENDBRANCH   4   7
ENDBRANCH   2   3
TORSDOF 7
