REMARK  11 active torsions:
REMARK  status: ('A' for Active; 'I' for Inactive)
REMARK    1  A    between atoms: N1_7  and  C6_8 
REMARK    2  A    between atoms: C10_12  and  C11_13 
REMARK    3  A    between atoms: C11_13  and  C12_14 
REMARK    4  A    between atoms: C11_13  and  C18_23 
REMARK    5  A    between atoms: C12_14  and  C13_15 
REMARK    6  A    between atoms: C18_23  and  C19_24 
REMARK    7  A    between atoms: C18_23  and  N4_31 
REMARK    8  A    between atoms: C19_24  and  C20_25 
REMARK    9  A    between atoms: N4_31  and  C26_32 
REMARK   10  A    between atoms: C26_32  and  C27_34 
REMARK   11  A    between atoms: N6_37  and  C29_38 
ROOT
HETATM    1  C1  UNL     1      -5.645   5.082  -2.688  1.00  0.00     0.040 C 
HETATM    2  C2  UNL     1      -5.013   4.253  -1.644  1.00  0.00     0.026 C 
HETATM    3  C3  UNL     1      -4.572   4.817  -0.545  1.00  0.00     0.149 A 
HETATM    4  O1  UNL     1      -4.628   6.174  -0.222  1.00  0.00    -0.304 OA
HETATM    5  C4  UNL     1      -4.049   6.308   1.025  1.00  0.00     0.162 A 
HETATM    6  C5  UNL     1      -3.641   5.146   1.497  1.00  0.00     0.124 A 
HETATM    7  N1  UNL     1      -3.947   4.148   0.537  1.00  0.00    -0.301 N 
ENDROOT
BRANCH   7   8
HETATM    8  C6  UNL     1      -3.645   2.764   0.717  1.00  0.00     0.041 A 
HETATM    9  C7  UNL     1      -4.553   1.914   1.312  1.00  0.00     0.030 A 
HETATM   10  C8  UNL     1      -4.273   0.579   1.490  1.00  0.00     0.003 A 
HETATM   11  C9  UNL     1      -3.063   0.089   1.064  1.00  0.00     0.007 A 
HETATM   12  C10 UNL     1      -2.094   0.881   0.456  1.00  0.00    -0.050 A 
HETATM   13  C33 UNL     1      -2.466   2.228   0.316  1.00  0.00     0.037 A 
BRANCH  12  14
HETATM   14  C11 UNL     1      -0.799   0.363   0.018  1.00  0.00     0.043 C 
BRANCH  14  15
HETATM   15  C12 UNL     1      -0.699  -0.419  -1.226  1.00  0.00     0.036 C 
BRANCH  15  16
HETATM   16  C13 UNL     1      -1.448  -1.656  -1.441  1.00  0.00     0.088 C 
HETATM   17  C14 UNL     1      -0.948  -2.184  -2.841  1.00  0.00     0.045 C 
HETATM   18  C15 UNL     1      -1.375  -3.617  -2.895  1.00  0.00     0.129 C 
HETATM   19  N2  UNL     1      -2.790  -3.727  -2.685  1.00  0.00    -0.339 N 
HETATM   20  C16 UNL     1      -3.441  -4.978  -3.065  1.00  0.00     0.154 C 
HETATM   21  C17 UNL     1      -3.554  -2.653  -2.121  1.00  0.00     0.318 C 
HETATM   22  O2  UNL     1      -4.780  -2.793  -1.948  1.00  0.00    -0.247 OA
HETATM   23  N3  UNL     1      -2.879  -1.456  -1.776  1.00  0.00    -0.338 N 
HETATM   24  H21 UNL     1      -3.369  -0.566  -1.800  1.00  0.00     0.164 HD
ENDBRANCH  15  16
ENDBRANCH  14  15
BRANCH  14  25
HETATM   25  C18 UNL     1       0.145  -0.042   1.128  1.00  0.00     0.097 C 
BRANCH  25  26
HETATM   26  C19 UNL     1      -0.321  -1.097   2.059  1.00  0.00     0.064 C 
BRANCH  26  27
HETATM   27  C20 UNL     1       0.755  -1.402   3.088  1.00  0.00    -0.056 A 
HETATM   28  C21 UNL     1       0.815  -0.712   4.280  1.00  0.00     0.007 A 
HETATM   29  C22 UNL     1       1.808  -1.002   5.219  1.00  0.00     0.001 A 
HETATM   30  C23 UNL     1       2.749  -1.989   4.966  1.00  0.00     0.000 A 
HETATM   31  C24 UNL     1       2.690  -2.672   3.788  1.00  0.00     0.001 A 
HETATM   32  C25 UNL     1       1.703  -2.376   2.866  1.00  0.00     0.007 A 
ENDBRANCH  26  27
ENDBRANCH  25  26
BRANCH  25  33
HETATM   33  N4  UNL     1       1.414  -0.519   0.582  1.00  0.00    -0.351 N 
HETATM   34  H30 UNL     1       1.385  -1.447   0.111  1.00  0.00     0.163 HD
BRANCH  33  35
HETATM   35  C26 UNL     1       2.624   0.203   0.681  1.00  0.00     0.254 C 
HETATM   36  O3  UNL     1       2.620   1.312   1.264  1.00  0.00    -0.268 OA
BRANCH  35  37
HETATM   37  C27 UNL     1       3.836  -0.358   0.105  1.00  0.00     0.068 A 
HETATM   38  C28 UNL     1       3.968  -1.578  -0.524  1.00  0.00     0.157 A 
HETATM   39  N5  UNL     1       5.227  -1.720  -0.908  1.00  0.00    -0.184 NA
HETATM   40  N6  UNL     1       5.928  -0.665  -0.569  1.00  0.00    -0.276 N 
HETATM   41  C32 UNL     1       5.105   0.187   0.053  1.00  0.00     0.131 A 
BRANCH  40  42
HETATM   42  C29 UNL     1       7.357  -0.527  -0.862  1.00  0.00     0.101 C 
HETATM   43  C30 UNL     1       7.541   0.318  -2.104  1.00  0.00     0.034 C 
HETATM   44  C31 UNL     1       8.014   0.147   0.318  1.00  0.00     0.034 C 
ENDBRANCH  40  42
ENDBRANCH  35  37
ENDBRANCH  33  35
ENDBRANCH  25  33
ENDBRANCH  14  25
ENDBRANCH  12  14
ENDBRANCH   7   8
TORSDOF 10
