REMARK  18 active torsions:
REMARK  status: ('A' for Active; 'I' for Inactive)
REMARK    1  A    between atoms: C2_2  and  O1_3 
REMARK    2  A    between atoms: O1_3  and  C3_4 
REMARK    3  A    between atoms: C3_4  and  C4_6 
REMARK    4  A    between atoms: C5_7  and  C6_8 
REMARK    5  A    between atoms: C6_8  and  C7_9 
REMARK    6  A    between atoms: C6_8  and  N2_14 
REMARK    7  A    between atoms: C7_9  and  C8_10 
REMARK    8  A    between atoms: C8_10  and  C9_11 
REMARK       I    between atoms: C9_11  and  N1_12 
REMARK    9  A    between atoms: N2_14  and  C10_15 
REMARK   10  A    between atoms: C10_15  and  C11_17 
REMARK   11  A    between atoms: C11_17  and  C12_18 
REMARK   12  A    between atoms: C11_17  and  N3_26 
REMARK   13  A    between atoms: C12_18  and  C13_19 
REMARK       I    between atoms: N3_26  and  C19_27 
REMARK   14  A    between atoms: C19_27  and  C20_29 
REMARK   15  A    between atoms: C20_29  and  N4_30 
REMARK   16  A    between atoms: C20_29  and  C26_39 
REMARK   17  A    between atoms: N4_30  and  C21_31 
REMARK   18  A    between atoms: C21_31  and  C22_33 
ROOT
HETATM    1  C1  UNL     1      -7.860   0.518   2.943  1.00  0.00     0.034 C 
HETATM    2  C2  UNL     1      -6.983   1.739   3.194  1.00  0.00     0.174 C 
ENDROOT
BRANCH   2   3
HETATM    3  O1  UNL     1      -5.942   1.751   2.223  1.00  0.00    -0.319 OA
BRANCH   3   4
HETATM    4  C3  UNL     1      -4.974   2.720   2.167  1.00  0.00     0.282 C 
HETATM    5  O2  UNL     1      -5.026   3.643   3.030  1.00  0.00    -0.260 OA
BRANCH   4   6
HETATM    6  C4  UNL     1      -3.908   2.726   1.170  1.00  0.00     0.080 C 
HETATM    7  C5  UNL     1      -3.808   1.783   0.246  1.00  0.00     0.004 C 
BRANCH   7   8
HETATM    8  C6  UNL     1      -2.723   1.819  -0.745  1.00  0.00     0.108 C 
BRANCH   8   9
HETATM    9  C7  UNL     1      -3.084   2.296  -2.090  1.00  0.00     0.038 C 
BRANCH   9  10
HETATM   10  C8  UNL     1      -4.104   1.591  -2.876  1.00  0.00     0.105 C 
BRANCH  10  11
HETATM   11  C9  UNL     1      -5.477   1.546  -2.422  1.00  0.00     0.215 C 
HETATM   12  N1  UNL     1      -6.343   0.462  -2.719  1.00  0.00    -0.370 N 
HETATM   13  H13 UNL     1      -6.030  -0.524  -2.717  1.00  0.00     0.159 HD
HETATM   14  H14 UNL     1      -7.332   0.671  -2.951  1.00  0.00     0.159 HD
HETATM   15  O3  UNL     1      -5.977   2.471  -1.742  1.00  0.00    -0.274 OA
ENDBRANCH  10  11
ENDBRANCH   9  10
ENDBRANCH   8   9
BRANCH   8  16
HETATM   16  N2  UNL     1      -1.989   0.562  -0.758  1.00  0.00    -0.351 N 
HETATM   17  H15 UNL     1      -2.436  -0.244  -1.221  1.00  0.00     0.163 HD
BRANCH  16  18
HETATM   18  C10 UNL     1      -0.713   0.387  -0.178  1.00  0.00     0.241 C 
HETATM   19  O4  UNL     1      -0.101   1.326   0.417  1.00  0.00    -0.271 OA
BRANCH  18  20
HETATM   20  C11 UNL     1       0.003  -0.928  -0.230  1.00  0.00     0.179 C 
BRANCH  20  21
HETATM   21  C12 UNL     1      -0.919  -1.972   0.344  1.00  0.00     0.073 C 
BRANCH  21  22
HETATM   22  C13 UNL     1      -0.295  -3.322   0.341  1.00  0.00    -0.056 A 
HETATM   23  C14 UNL     1      -0.429  -4.155  -0.748  1.00  0.00     0.010 A 
HETATM   24  C15 UNL     1       0.133  -5.412  -0.796  1.00  0.00     0.043 A 
HETATM   25  C16 UNL     1       0.859  -5.889   0.255  1.00  0.00     0.116 A 
HETATM   26  F1  UNL     1       1.430  -7.131   0.237  1.00  0.00    -0.206 F 
HETATM   27  C17 UNL     1       1.016  -5.082   1.368  1.00  0.00     0.043 A 
HETATM   28  C18 UNL     1       0.442  -3.813   1.403  1.00  0.00     0.010 A 
ENDBRANCH  21  22
ENDBRANCH  20  21
BRANCH  20  29
HETATM   29  N3  UNL     1       1.270  -0.863   0.487  1.00  0.00    -0.357 N 
HETATM   30  C19 UNL     1       2.516  -0.839  -0.165  1.00  0.00     0.175 C 
HETATM   31  O5  UNL     1       2.411  -0.871  -1.466  1.00  0.00    -0.175 OA
HETATM   32  H23 UNL     1       1.225  -0.827   1.522  1.00  0.00     0.162 HD
BRANCH  30  33
HETATM   33  C20 UNL     1       3.859  -0.784   0.382  1.00  0.00     0.166 C 
BRANCH  33  34
HETATM   34  N4  UNL     1       4.667   0.035  -0.529  1.00  0.00    -0.343 N 
HETATM   35  H25 UNL     1       4.488   1.062  -0.619  1.00  0.00     0.163 HD
BRANCH  34  36
HETATM   36  C21 UNL     1       5.719  -0.501  -1.324  1.00  0.00     0.273 C 
HETATM   37  O6  UNL     1       5.956  -1.719  -1.236  1.00  0.00    -0.266 OA
BRANCH  36  38
HETATM   38  C22 UNL     1       6.507   0.333  -2.219  1.00  0.00     0.154 A 
HETATM   39  C23 UNL     1       6.393   1.690  -2.457  1.00  0.00     0.074 A 
HETATM   40  C24 UNL     1       7.356   2.032  -3.383  1.00  0.00     0.077 A 
HETATM   41  C25 UNL     1       7.594   3.418  -3.934  1.00  0.00     0.079 C 
HETATM   42  O7  UNL     1       7.991   0.931  -3.664  1.00  0.00    -0.218 OA
HETATM   43  N5  UNL     1       7.518  -0.077  -3.000  1.00  0.00    -0.123 NA
ENDBRANCH  36  38
ENDBRANCH  34  36
ENDBRANCH  33  34
BRANCH  33  44
HETATM   44  C26 UNL     1       4.066  -0.388   1.787  1.00  0.00     0.008 C 
HETATM   45  C27 UNL     1       3.441  -1.279   2.830  1.00  0.00     0.012 C 
HETATM   46  C28 UNL     1       3.722   1.069   2.054  1.00  0.00     0.012 C 
ENDBRANCH  33  44
ENDBRANCH  30  33
ENDBRANCH  20  29
ENDBRANCH  18  20
ENDBRANCH  16  18
ENDBRANCH   8  16
ENDBRANCH   7   8
ENDBRANCH   4   6
ENDBRANCH   3   4
ENDBRANCH   2   3
TORSDOF 16
