REMARK  17 active torsions:
REMARK  status: ('A' for Active; 'I' for Inactive)
REMARK    1  A    between atoms: C2_2  and  O1_3 
REMARK    2  A    between atoms: O1_3  and  C3_4 
REMARK    3  A    between atoms: C3_4  and  C4_6 
REMARK    4  A    between atoms: C5_7  and  C6_8 
REMARK    5  A    between atoms: C6_8  and  C7_9 
REMARK    6  A    between atoms: C6_8  and  N2_16 
REMARK    7  A    between atoms: C7_9  and  C8_10 
REMARK       I    between atoms: N2_16  and  C12_17 
REMARK    8  A    between atoms: C12_17  and  C13_19 
REMARK    9  A    between atoms: C13_19  and  C14_20 
REMARK   10  A    between atoms: C13_19  and  O5_28 
REMARK   11  A    between atoms: C14_20  and  C15_21 
REMARK   12  A    between atoms: O5_28  and  C21_29 
REMARK   13  A    between atoms: C21_29  and  C22_31 
REMARK   14  A    between atoms: C22_31  and  N3_32 
REMARK   15  A    between atoms: C22_31  and  C28_41 
REMARK   16  A    between atoms: N3_32  and  C23_33 
REMARK   17  A    between atoms: C23_33  and  C24_35 
ROOT
HETATM    1  C1  UNL     1      -6.718   3.276   4.255  1.00  0.00     0.034 C 
HETATM    2  C2  UNL     1      -7.256   2.615   3.038  1.00  0.00     0.174 C 
ENDROOT
BRANCH   2   3
HETATM    3  O1  UNL     1      -6.290   2.163   2.128  1.00  0.00    -0.319 OA
BRANCH   3   4
HETATM    4  C3  UNL     1      -5.325   1.216   2.415  1.00  0.00     0.282 C 
HETATM    5  O2  UNL     1      -5.357   0.751   3.581  1.00  0.00    -0.260 OA
BRANCH   4   6
HETATM    6  C4  UNL     1      -4.334   0.786   1.427  1.00  0.00     0.080 C 
HETATM    7  C5  UNL     1      -4.310   1.275   0.221  1.00  0.00     0.004 C 
BRANCH   7   8
HETATM    8  C6  UNL     1      -3.333   0.879  -0.827  1.00  0.00     0.108 C 
BRANCH   8   9
HETATM    9  C7  UNL     1      -3.948   0.577  -2.145  1.00  0.00     0.043 C 
BRANCH   9  10
HETATM   10  C8  UNL     1      -4.966  -0.495  -2.188  1.00  0.00     0.081 C 
HETATM   11  C9  UNL     1      -4.502  -1.862  -1.759  1.00  0.00     0.034 C 
HETATM   12  C10 UNL     1      -5.503  -2.785  -2.454  1.00  0.00     0.123 C 
HETATM   13  N1  UNL     1      -5.511  -2.170  -3.793  1.00  0.00    -0.361 N 
HETATM   14  C11 UNL     1      -5.286  -0.776  -3.637  1.00  0.00     0.221 C 
HETATM   15  H16 UNL     1      -5.659  -2.739  -4.635  1.00  0.00     0.162 HD
HETATM   16  O3  UNL     1      -5.350   0.059  -4.571  1.00  0.00    -0.273 OA
ENDBRANCH   9  10
ENDBRANCH   8   9
BRANCH   8  17
HETATM   17  N2  UNL     1      -2.315  -0.027  -0.377  1.00  0.00    -0.351 N 
HETATM   18  C12 UNL     1      -0.993   0.384  -0.058  1.00  0.00     0.248 C 
HETATM   19  O4  UNL     1      -0.703   1.595  -0.165  1.00  0.00    -0.271 OA
HETATM   20  H17 UNL     1      -2.481  -1.069  -0.245  1.00  0.00     0.163 HD
BRANCH  18  21
HETATM   21  C13 UNL     1       0.068  -0.555   0.397  1.00  0.00     0.227 C 
BRANCH  21  22
HETATM   22  C14 UNL     1      -0.393  -1.483   1.457  1.00  0.00     0.080 C 
BRANCH  22  23
HETATM   23  C15 UNL     1       0.705  -2.386   1.861  1.00  0.00    -0.055 A 
HETATM   24  C16 UNL     1       0.877  -3.593   1.185  1.00  0.00     0.010 A 
HETATM   25  C17 UNL     1       1.885  -4.470   1.547  1.00  0.00     0.043 A 
HETATM   26  C18 UNL     1       2.750  -4.185   2.581  1.00  0.00     0.116 A 
HETATM   27  F1  UNL     1       3.734  -5.052   2.929  1.00  0.00    -0.206 F 
HETATM   28  C19 UNL     1       2.570  -2.979   3.246  1.00  0.00     0.043 A 
HETATM   29  C20 UNL     1       1.561  -2.099   2.887  1.00  0.00     0.010 A 
ENDBRANCH  22  23
ENDBRANCH  21  22
BRANCH  21  30
HETATM   30  O5  UNL     1       1.270   0.063   0.726  1.00  0.00    -0.304 OA
BRANCH  30  31
HETATM   31  C21 UNL     1       2.433  -0.008   0.018  1.00  0.00     0.283 C 
HETATM   32  O6  UNL     1       2.490  -0.664  -1.036  1.00  0.00    -0.263 OA
BRANCH  31  33
HETATM   33  C22 UNL     1       3.646   0.695   0.498  1.00  0.00     0.188 C 
BRANCH  33  34
HETATM   34  N3  UNL     1       4.732   0.555  -0.443  1.00  0.00    -0.341 N 
HETATM   35  H26 UNL     1       4.664   1.043  -1.383  1.00  0.00     0.163 HD
BRANCH  34  36
HETATM   36  C23 UNL     1       5.898  -0.197  -0.198  1.00  0.00     0.273 C 
HETATM   37  O7  UNL     1       6.049  -0.805   0.884  1.00  0.00    -0.266 OA
BRANCH  36  38
HETATM   38  C24 UNL     1       6.971  -0.291  -1.208  1.00  0.00     0.154 A 
HETATM   39  C25 UNL     1       7.034   0.351  -2.413  1.00  0.00     0.074 A 
HETATM   40  C26 UNL     1       8.236  -0.083  -2.973  1.00  0.00     0.077 A 
HETATM   41  C27 UNL     1       8.733   0.361  -4.304  1.00  0.00     0.079 C 
HETATM   42  O8  UNL     1       8.819  -0.902  -2.168  1.00  0.00    -0.218 OA
HETATM   43  N4  UNL     1       8.070  -1.038  -1.100  1.00  0.00    -0.123 NA
ENDBRANCH  36  38
ENDBRANCH  34  36
ENDBRANCH  33  34
BRANCH  33  44
HETATM   44  C28 UNL     1       3.290   2.129   0.780  1.00  0.00     0.010 C 
HETATM   45  C29 UNL     1       4.487   2.916   1.282  1.00  0.00     0.012 C 
HETATM   46  C30 UNL     1       2.728   2.801  -0.446  1.00  0.00     0.012 C 
ENDBRANCH  33  44
ENDBRANCH  31  33
ENDBRANCH  30  31
ENDBRANCH  21  30
ENDBRANCH  18  21
ENDBRANCH   8  17
ENDBRANCH   7   8
ENDBRANCH   4   6
ENDBRANCH   3   4
ENDBRANCH   2   3
TORSDOF 16
