REMARK  14 active torsions:
REMARK  status: ('A' for Active; 'I' for Inactive)
REMARK    1  A    between atoms: C2_2  and  O1_3 
REMARK    2  A    between atoms: O1_3  and  C3_4 
REMARK    3  A    between atoms: C3_4  and  C4_6 
REMARK    4  A    between atoms: C5_7  and  C6_8 
REMARK    5  A    between atoms: C6_8  and  C7_9 
REMARK    6  A    between atoms: C6_8  and  N2_14 
REMARK    7  A    between atoms: C7_9  and  C8_10 
REMARK    8  A    between atoms: C8_10  and  C9_11 
REMARK       I    between atoms: C9_11  and  N1_12 
REMARK       I    between atoms: N2_14  and  C10_15 
REMARK    9  A    between atoms: C10_15  and  C11_17 
REMARK   10  A    between atoms: C11_17  and  C12_18 
REMARK   11  A    between atoms: C11_17  and  N3_25 
REMARK   12  A    between atoms: C12_18  and  C13_19 
REMARK   13  A    between atoms: C23_30  and  N4_31 
REMARK       I    between atoms: N4_31  and  C24_32 
REMARK   14  A    between atoms: C24_32  and  C25_34 
ROOT
HETATM    1  C1  UNL     1       6.214   4.302  -1.474  1.00  0.00     0.034 C 
HETATM    2  C2  UNL     1       6.193   4.128   0.029  1.00  0.00     0.174 C 
ENDROOT
BRANCH   2   3
HETATM    3  O1  UNL     1       5.485   2.945   0.366  1.00  0.00    -0.319 OA
BRANCH   3   4
HETATM    4  C3  UNL     1       5.863   1.686  -0.065  1.00  0.00     0.282 C 
HETATM    5  O2  UNL     1       6.880   1.599  -0.789  1.00  0.00    -0.260 OA
BRANCH   4   6
HETATM    6  C4  UNL     1       5.082   0.519   0.326  1.00  0.00     0.080 C 
HETATM    7  C5  UNL     1       4.027   0.633   1.080  1.00  0.00     0.004 C 
BRANCH   7   8
HETATM    8  C6  UNL     1       3.189  -0.511   1.515  1.00  0.00     0.108 C 
BRANCH   8   9
HETATM    9  C7  UNL     1       4.127  -1.622   1.950  1.00  0.00     0.038 C 
BRANCH   9  10
HETATM   10  C8  UNL     1       5.007  -1.175   3.087  1.00  0.00     0.105 C 
BRANCH  10  11
HETATM   11  C9  UNL     1       5.903  -2.279   3.480  1.00  0.00     0.215 C 
HETATM   12  N1  UNL     1       6.821  -2.096   4.538  1.00  0.00    -0.370 N 
HETATM   13  H13 UNL     1       7.113  -1.146   4.810  1.00  0.00     0.159 HD
HETATM   14  H14 UNL     1       7.203  -2.908   5.042  1.00  0.00     0.159 HD
HETATM   15  O3  UNL     1       5.857  -3.373   2.889  1.00  0.00    -0.274 OA
ENDBRANCH  10  11
ENDBRANCH   9  10
ENDBRANCH   8   9
BRANCH   8  16
HETATM   16  N2  UNL     1       2.262  -0.957   0.504  1.00  0.00    -0.351 N 
HETATM   17  C10 UNL     1       0.854  -0.969   0.690  1.00  0.00     0.241 C 
HETATM   18  O4  UNL     1       0.422  -0.569   1.793  1.00  0.00    -0.271 OA
HETATM   19  H15 UNL     1       2.667  -1.280  -0.396  1.00  0.00     0.163 HD
BRANCH  17  20
HETATM   20  C11 UNL     1       0.013  -1.456  -0.439  1.00  0.00     0.188 C 
BRANCH  20  21
HETATM   21  C12 UNL     1       0.264  -0.691  -1.688  1.00  0.00     0.074 C 
BRANCH  21  22
HETATM   22  C13 UNL     1      -0.547  -1.168  -2.805  1.00  0.00    -0.056 A 
HETATM   23  C14 UNL     1      -1.748  -0.618  -3.178  1.00  0.00     0.007 A 
HETATM   24  C15 UNL     1      -2.485  -1.122  -4.234  1.00  0.00     0.001 A 
HETATM   25  C16 UNL     1      -2.038  -2.205  -4.958  1.00  0.00     0.000 A 
HETATM   26  C17 UNL     1      -0.834  -2.761  -4.589  1.00  0.00     0.001 A 
HETATM   27  C18 UNL     1      -0.094  -2.266  -3.540  1.00  0.00     0.007 A 
ENDBRANCH  21  22
ENDBRANCH  20  21
BRANCH  20  28
HETATM   28  N3  UNL     1      -1.352  -1.671  -0.072  1.00  0.00    -0.309 N 
HETATM   29  C19 UNL     1      -1.898  -2.927  -0.073  1.00  0.00     0.096 A 
HETATM   30  C20 UNL     1      -3.190  -3.191   0.279  1.00  0.00     0.026 A 
HETATM   31  C21 UNL     1      -4.020  -2.167   0.661  1.00  0.00    -0.028 A 
HETATM   32  C22 UNL     1      -5.430  -2.380   1.056  1.00  0.00     0.050 C 
HETATM   33  C23 UNL     1      -3.507  -0.888   0.676  1.00  0.00     0.110 A 
HETATM   34  C29 UNL     1      -2.185  -0.689   0.306  1.00  0.00     0.275 A 
HETATM   35  O7  UNL     1      -1.758   0.505   0.333  1.00  0.00    -0.265 OA
BRANCH  33  36
HETATM   36  N4  UNL     1      -4.348   0.185   1.069  1.00  0.00    -0.317 N 
HETATM   37  C24 UNL     1      -5.127   0.895   0.123  1.00  0.00     0.277 C 
HETATM   38  O5  UNL     1      -5.066   0.562  -1.086  1.00  0.00    -0.266 OA
HETATM   39  H29 UNL     1      -4.396   0.459   2.067  1.00  0.00     0.169 HD
BRANCH  37  40
HETATM   40  C25 UNL     1      -5.989   2.000   0.551  1.00  0.00     0.154 A 
HETATM   41  C26 UNL     1      -6.791   2.769  -0.267  1.00  0.00     0.074 A 
HETATM   42  C27 UNL     1      -7.435   3.695   0.530  1.00  0.00     0.077 A 
HETATM   43  C28 UNL     1      -8.402   4.749   0.134  1.00  0.00     0.079 C 
HETATM   44  O6  UNL     1      -7.018   3.464   1.750  1.00  0.00    -0.218 OA
HETATM   45  N5  UNL     1      -6.176   2.483   1.785  1.00  0.00    -0.123 NA
ENDBRANCH  37  40
ENDBRANCH  33  36
ENDBRANCH  20  28
ENDBRANCH  17  20
ENDBRANCH   8  16
ENDBRANCH   7   8
ENDBRANCH   4   6
ENDBRANCH   3   4
ENDBRANCH   2   3
TORSDOF 14
