REMARK  14 active torsions:
REMARK  status: ('A' for Active; 'I' for Inactive)
REMARK    1  A    between atoms: C2_2  and  O1_3 
REMARK    2  A    between atoms: O1_3  and  C3_4 
REMARK    3  A    between atoms: C3_4  and  C4_6 
REMARK    4  A    between atoms: C5_7  and  C6_8 
REMARK    5  A    between atoms: C6_8  and  C7_9 
REMARK    6  A    between atoms: C6_8  and  N2_16 
REMARK    7  A    between atoms: C7_9  and  C8_10 
REMARK       I    between atoms: N2_16  and  C12_17 
REMARK    8  A    between atoms: C12_17  and  C13_19 
REMARK    9  A    between atoms: C13_19  and  C14_20 
REMARK   10  A    between atoms: C13_19  and  N3_28 
REMARK   11  A    between atoms: C14_20  and  C15_21 
REMARK       I    between atoms: N3_28  and  C21_29 
REMARK   12  A    between atoms: C21_29  and  C22_31 
REMARK   13  A    between atoms: C22_31  and  N4_32 
REMARK       I    between atoms: N4_32  and  C23_33 
REMARK   14  A    between atoms: C23_33  and  C24_35 
ROOT
HETATM    1  C1  UNL     1      -7.589  -0.822   3.641  1.00  0.00     0.034 C 
HETATM    2  C2  UNL     1      -7.528  -1.529   2.289  1.00  0.00     0.174 C 
ENDROOT
BRANCH   2   3
HETATM    3  O1  UNL     1      -6.371  -1.076   1.654  1.00  0.00    -0.319 OA
BRANCH   3   4
HETATM    4  C3  UNL     1      -5.955  -1.487   0.382  1.00  0.00     0.282 C 
HETATM    5  O2  UNL     1      -6.676  -2.314  -0.210  1.00  0.00    -0.260 OA
BRANCH   4   6
HETATM    6  C4  UNL     1      -4.708  -0.930  -0.179  1.00  0.00     0.080 C 
HETATM    7  C5  UNL     1      -3.981  -0.068   0.474  1.00  0.00     0.004 C 
BRANCH   7   8
HETATM    8  C6  UNL     1      -2.724   0.554   0.019  1.00  0.00     0.108 C 
BRANCH   8   9
HETATM    9  C7  UNL     1      -2.947   1.571  -1.051  1.00  0.00     0.043 C 
BRANCH   9  10
HETATM   10  C8  UNL     1      -3.818   2.717  -0.709  1.00  0.00     0.081 C 
HETATM   11  C9  UNL     1      -3.945   3.643  -1.911  1.00  0.00     0.034 C 
HETATM   12  C10 UNL     1      -3.443   4.957  -1.393  1.00  0.00     0.123 C 
HETATM   13  N1  UNL     1      -3.586   4.916   0.050  1.00  0.00    -0.361 N 
HETATM   14  C11 UNL     1      -3.442   3.550   0.418  1.00  0.00     0.221 C 
HETATM   15  H16 UNL     1      -3.765   5.744   0.694  1.00  0.00     0.162 HD
HETATM   16  O3  UNL     1      -3.051   3.193   1.549  1.00  0.00    -0.273 OA
ENDBRANCH   9  10
ENDBRANCH   8   9
BRANCH   8  17
HETATM   17  N2  UNL     1      -1.747  -0.455  -0.426  1.00  0.00    -0.351 N 
HETATM   18  C12 UNL     1      -0.562  -0.702   0.281  1.00  0.00     0.241 C 
HETATM   19  O4  UNL     1      -0.369   0.003   1.354  1.00  0.00    -0.271 OA
HETATM   20  H17 UNL     1      -1.963  -0.955  -1.298  1.00  0.00     0.163 HD
BRANCH  18  21
HETATM   21  C13 UNL     1       0.462  -1.670  -0.097  1.00  0.00     0.180 C 
BRANCH  21  22
HETATM   22  C14 UNL     1       0.102  -3.087  -0.149  1.00  0.00     0.073 C 
BRANCH  22  23
HETATM   23  C15 UNL     1      -0.952  -3.532  -1.060  1.00  0.00    -0.056 A 
HETATM   24  C16 UNL     1      -0.665  -3.726  -2.418  1.00  0.00     0.010 A 
HETATM   25  C17 UNL     1      -1.594  -4.195  -3.317  1.00  0.00     0.043 A 
HETATM   26  C18 UNL     1      -2.874  -4.501  -2.907  1.00  0.00     0.116 A 
HETATM   27  F1  UNL     1      -3.812  -4.967  -3.790  1.00  0.00    -0.206 F 
HETATM   28  C19 UNL     1      -3.196  -4.325  -1.579  1.00  0.00     0.043 A 
HETATM   29  C20 UNL     1      -2.258  -3.854  -0.688  1.00  0.00     0.010 A 
ENDBRANCH  22  23
ENDBRANCH  21  22
BRANCH  21  30
HETATM   30  N3  UNL     1       1.642  -1.399   0.717  1.00  0.00    -0.346 N 
HETATM   31  C21 UNL     1       2.810  -0.728   0.304  1.00  0.00     0.239 C 
HETATM   32  O5  UNL     1       2.728  -0.362  -0.922  1.00  0.00    -0.271 OA
HETATM   33  H25 UNL     1       1.681  -1.719   1.708  1.00  0.00     0.163 HD
BRANCH  31  34
HETATM   34  C22 UNL     1       3.959  -0.481   1.124  1.00  0.00     0.154 A 
HETATM   35  C28 UNL     1       3.886   0.431   2.390  1.00  0.00    -0.022 A 
HETATM   36  C29 UNL     1       5.340   0.453   3.113  1.00  0.00     0.017 C 
HETATM   37  C30 UNL     1       3.809   2.006   2.080  1.00  0.00     0.017 C 
HETATM   38  C31 UNL     1       3.524   0.296   2.404  1.00  0.00     0.053 A 
BRANCH  34  39
HETATM   39  N4  UNL     1       4.967   0.070   0.225  1.00  0.00    -0.344 N 
HETATM   40  C23 UNL     1       6.196  -0.467  -0.107  1.00  0.00     0.273 C 
HETATM   41  O6  UNL     1       6.511  -1.573   0.425  1.00  0.00    -0.266 OA
HETATM   42  H27 UNL     1       4.673   0.959  -0.184  1.00  0.00     0.163 HD
BRANCH  40  43
HETATM   43  C24 UNL     1       7.142   0.129  -1.010  1.00  0.00     0.154 A 
HETATM   44  C25 UNL     1       7.053   1.310  -1.737  1.00  0.00     0.074 A 
HETATM   45  C26 UNL     1       8.221   1.455  -2.468  1.00  0.00     0.077 A 
HETATM   46  C27 UNL     1       8.560   2.578  -3.392  1.00  0.00     0.079 C 
HETATM   47  O7  UNL     1       8.935   0.414  -2.173  1.00  0.00    -0.218 OA
HETATM   48  N5  UNL     1       8.344  -0.374  -1.333  1.00  0.00    -0.123 NA
ENDBRANCH  40  43
ENDBRANCH  34  39
ENDBRANCH  31  34
ENDBRANCH  21  30
ENDBRANCH  18  21
ENDBRANCH   8  17
ENDBRANCH   7   8
ENDBRANCH   4   6
ENDBRANCH   3   4
ENDBRANCH   2   3
TORSDOF 14
