REMARK  12 active torsions:
REMARK  status: ('A' for Active; 'I' for Inactive)
REMARK    1  A    between atoms: C2_2  and  C4_4 
REMARK    2  A    between atoms: C4_4  and  N1_5 
REMARK    3  A    between atoms: C7_8  and  O1_9 
REMARK    4  A    between atoms: C8_10  and  C9_11 
REMARK    5  A    between atoms: C9_11  and  C10_12 
REMARK       I    between atoms: N2_18  and  C16_19 
REMARK    6  A    between atoms: C16_19  and  C17_21 
REMARK    7  A    between atoms: C21_26  and  C22_27 
REMARK    8  A    between atoms: C23_28  and  C24_29 
REMARK    9  A    between atoms: C24_29  and  C25_30 
REMARK   10  A    between atoms: C25_30  and  C26_31 
REMARK   11  A    between atoms: C26_31  and  C27_33 
REMARK   12  A    between atoms: C27_33  and  O4_34 
ROOT
HETATM    1  C1  UNL     1      -6.712  -4.070   0.788  1.00  0.00     0.011 C 
HETATM    2  C2  UNL     1      -5.779  -4.221  -0.401  1.00  0.00    -0.005 C 
HETATM    3  C3  UNL     1      -6.449  -5.077  -1.459  1.00  0.00     0.011 C 
ENDROOT
BRANCH   2   4
HETATM    4  C4  UNL     1      -5.552  -2.857  -1.034  1.00  0.00     0.129 C 
BRANCH   4   5
HETATM    5  N1  UNL     1      -4.693  -2.023  -0.234  1.00  0.00    -0.349 N 
HETATM    6  C5  UNL     1      -5.173  -0.980   0.657  1.00  0.00     0.135 C 
HETATM    7  C6  UNL     1      -3.960  -0.691   1.498  1.00  0.00     0.067 C 
HETATM    8  C7  UNL     1      -3.816   0.764   1.844  1.00  0.00     0.149 C 
HETATM    9  C30 UNL     1      -2.753  -1.047   0.679  1.00  0.00     0.188 C 
HETATM   10  C8  UNL     1      -2.738   1.327   0.939  1.00  0.00     0.121 C 
HETATM   11  N2  UNL     1      -2.118   0.194   0.313  1.00  0.00    -0.330 N 
HETATM   12  C16 UNL     1      -0.831   0.220  -0.323  1.00  0.00     0.227 C 
HETATM   13  O2  UNL     1      -0.900   0.448  -1.569  1.00  0.00    -0.273 OA
HETATM   14  C31 UNL     1      -3.320  -1.740  -0.507  1.00  0.00     0.243 C 
HETATM   15  O8  UNL     1      -2.645  -1.990  -1.538  1.00  0.00    -0.271 OA
BRANCH   8  16
HETATM   16  O1  UNL     1      -5.020   1.459   1.688  1.00  0.00    -0.393 OA
HETATM   17  H14 UNL     1      -5.285   1.953   2.493  1.00  0.00     0.210 HD
ENDBRANCH   8  16
BRANCH  10  18
HETATM   18  C9  UNL     1      -3.402   2.271  -0.020  1.00  0.00     0.066 C 
BRANCH  18  19
HETATM   19  C10 UNL     1      -2.447   3.147  -0.741  1.00  0.00    -0.056 C 
HETATM   20  C11 UNL     1      -2.790   3.531  -2.031  1.00  0.00     0.007 C 
HETATM   21  C12 UNL     1      -2.195   4.643  -2.614  1.00  0.00     0.001 C 
HETATM   22  C13 UNL     1      -1.144   5.307  -1.995  1.00  0.00     0.000 C 
HETATM   23  C14 UNL     1      -0.803   4.868  -0.723  1.00  0.00     0.001 C 
HETATM   24  C15 UNL     1      -1.704   4.077  -0.022  1.00  0.00     0.007 C 
ENDBRANCH  18  19
ENDBRANCH  10  18
BRANCH  12  25
HETATM   25  C17 UNL     1       0.269   0.788   0.497  1.00  0.00     0.113 C 
HETATM   26  C18 UNL     1       0.560  -0.003   1.730  1.00  0.00     0.284 C 
HETATM   27  N3  UNL     1       1.656   0.595   2.434  1.00  0.00     0.084 N 
HETATM   28  C19 UNL     1       2.167   1.795   1.853  1.00  0.00     0.270 C 
HETATM   29  H26 UNL     1       1.487   0.774   3.437  1.00  0.00     0.315 HD
HETATM   30  C20 UNL     1       2.642   1.613   0.411  1.00  0.00     0.039 C 
HETATM   31  C21 UNL     1       1.495   1.099  -0.355  1.00  0.00     0.024 C 
BRANCH  31  32
HETATM   32  C22 UNL     1       1.689   0.240  -1.512  1.00  0.00    -0.025 C 
HETATM   33  C23 UNL     1       1.756  -1.079  -1.270  1.00  0.00    -0.030 C 
BRANCH  33  34
HETATM   34  C24 UNL     1       2.943  -1.506  -0.541  1.00  0.00     0.034 C 
BRANCH  34  35
HETATM   35  C25 UNL     1       4.227  -1.413  -1.371  1.00  0.00     0.087 C 
BRANCH  35  36
HETATM   36  C26 UNL     1       5.366  -1.601  -0.449  1.00  0.00     0.179 C 
HETATM   37  O3  UNL     1       5.267  -2.485   0.393  1.00  0.00    -0.293 OA
BRANCH  36  38
HETATM   38  C27 UNL     1       6.725  -1.045  -0.668  1.00  0.00     0.208 C 
HETATM   39  C28 UNL     1       6.702   0.327  -1.289  1.00  0.00     0.233 C 
HETATM   40  O5  UNL     1       7.995   0.616  -1.748  1.00  0.00    -0.370 OA
HETATM   41  C29 UNL     1       8.802   1.137  -0.743  1.00  0.00     0.324 C 
HETATM   42  S1  UNL     1       8.811  -0.030   0.596  1.00  0.00     0.234 S 
HETATM   43  O6  UNL     1       9.028   0.740   1.877  1.00  0.00    -0.209 OA
HETATM   44  O7  UNL     1       9.989  -0.941   0.408  1.00  0.00    -0.209 OA
HETATM   45  N4  UNL     1       7.337  -0.908   0.652  1.00  0.00    -0.176 NA
HETATM   46  H43 UNL     1       6.676  -0.429   1.307  1.00  0.00     0.143 HD
BRANCH  38  47
HETATM   47  O4  UNL     1       7.505  -1.940  -1.398  1.00  0.00    -0.366 OA
HETATM   48  H38 UNL     1       7.862  -2.641  -0.805  1.00  0.00     0.212 HD
ENDBRANCH  38  47
ENDBRANCH  36  38
ENDBRANCH  35  36
ENDBRANCH  34  35
ENDBRANCH  33  34
ENDBRANCH  31  32
ENDBRANCH  12  25
ENDBRANCH   4   5
ENDBRANCH   2   4
TORSDOF 12
