MODEL 1
REMARK VINA RESULT:      -7.9      0.000      0.000
REMARK  11 active torsions:
REMARK  status: ('A' for Active; 'I' for Inactive)
REMARK    1  A    between atoms: N1_7  and  C6_8 
REMARK    2  A    between atoms: C10_12  and  C11_13 
REMARK    3  A    between atoms: C11_13  and  C12_14 
REMARK    4  A    between atoms: C11_13  and  C18_23 
REMARK    5  A    between atoms: C12_14  and  C13_15 
REMARK    6  A    between atoms: C18_23  and  C19_24 
REMARK    7  A    between atoms: C18_23  and  N4_31 
REMARK    8  A    between atoms: C19_24  and  C20_25 
REMARK    9  A    between atoms: N4_31  and  C26_32 
REMARK   10  A    between atoms: C26_32  and  C27_34 
REMARK   11  A    between atoms: N6_37  and  C29_38 
ROOT
HETATM    1  C1  UNL     1      -4.852  20.941  69.744  1.00  0.00     0.040 C 
HETATM    2  C2  UNL     1      -6.019  20.393  69.027  1.00  0.00     0.026 C 
HETATM    3  C3  UNL     1      -5.975  20.256  67.723  1.00  0.00     0.149 A 
HETATM    4  O1  UNL     1      -4.907  20.582  66.885  1.00  0.00    -0.304 OA
HETATM    5  C4  UNL     1      -5.305  20.272  65.599  1.00  0.00     0.162 A 
HETATM    6  C5  UNL     1      -6.529  19.782  65.575  1.00  0.00     0.124 A 
HETATM    7  N1  UNL     1      -7.016  19.747  66.907  1.00  0.00    -0.301 N 
ENDROOT
BRANCH   7   8
HETATM    8  C6  UNL     1      -8.316  19.271  67.258  1.00  0.00     0.041 A 
HETATM    9  C7  UNL     1      -9.381  20.140  67.363  1.00  0.00     0.030 A 
HETATM   10  C8  UNL     1     -10.638  19.693  67.700  1.00  0.00     0.003 A 
HETATM   11  C9  UNL     1     -10.829  18.353  67.934  1.00  0.00     0.007 A 
HETATM   12  C10 UNL     1      -9.806  17.414  67.848  1.00  0.00    -0.050 A 
HETATM   13  C33 UNL     1      -8.560  17.960  67.500  1.00  0.00     0.037 A 
BRANCH  12  14
HETATM   14  C11 UNL     1     -10.005  15.990  68.114  1.00  0.00     0.043 C 
BRANCH  14  15
HETATM   15  C12 UNL     1     -11.188  15.297  67.576  1.00  0.00     0.036 C 
BRANCH  15  16
HETATM   16  C13 UNL     1     -11.162  14.557  66.315  1.00  0.00     0.088 C 
HETATM   17  C14 UNL     1     -11.974  13.238  66.613  1.00  0.00     0.045 C 
HETATM   18  C15 UNL     1     -12.310  12.672  65.269  1.00  0.00     0.129 C 
HETATM   19  N2  UNL     1     -11.117  12.478  64.495  1.00  0.00    -0.339 N 
HETATM   20  C16 UNL     1     -11.197  11.607  63.326  1.00  0.00     0.154 C 
HETATM   21  C17 UNL     1      -9.881  13.114  64.844  1.00  0.00     0.318 C 
HETATM   22  O2  UNL     1      -8.870  12.925  64.139  1.00  0.00    -0.247 OA
HETATM   23  N3  UNL     1      -9.851  13.944  65.991  1.00  0.00    -0.338 N 
HETATM   24  H21 UNL     1      -8.992  14.052  66.524  1.00  0.00     0.164 HD
ENDBRANCH  15  16
ENDBRANCH  14  15
BRANCH  14  25
HETATM   25  C18 UNL     1      -9.516  15.509  69.462  1.00  0.00     0.097 C 
BRANCH  25  26
HETATM   26  C19 UNL     1     -10.060  16.191  70.660  1.00  0.00     0.064 C 
BRANCH  26  27
HETATM   27  C20 UNL     1      -9.079  17.239  71.158  1.00  0.00    -0.056 A 
HETATM   28  C21 UNL     1      -9.487  18.530  71.416  1.00  0.00     0.007 A 
HETATM   29  C22 UNL     1      -8.576  19.485  71.875  1.00  0.00     0.001 A 
HETATM   30  C23 UNL     1      -7.246  19.147  72.079  1.00  0.00     0.000 A 
HETATM   31  C24 UNL     1      -6.842  17.871  71.825  1.00  0.00     0.001 A 
HETATM   32  C25 UNL     1      -7.752  16.935  71.371  1.00  0.00     0.007 A 
ENDBRANCH  26  27
ENDBRANCH  25  26
BRANCH  25  33
HETATM   33  N4  UNL     1      -9.806  14.088  69.642  1.00  0.00    -0.351 N 
HETATM   34  H30 UNL     1     -10.740  13.862  70.043  1.00  0.00     0.163 HD
BRANCH  33  35
HETATM   35  C26 UNL     1      -8.894  13.060  69.314  1.00  0.00     0.254 C 
HETATM   36  O3  UNL     1      -9.146  12.316  68.338  1.00  0.00    -0.268 OA
BRANCH  35  37
HETATM   37  C27 UNL     1      -7.692  12.894  70.115  1.00  0.00     0.068 A 
HETATM   38  C28 UNL     1      -6.474  12.404  69.693  1.00  0.00     0.157 A 
HETATM   39  N5  UNL     1      -5.638  12.412  70.720  1.00  0.00    -0.184 NA
HETATM   40  N6  UNL     1      -6.235  12.878  71.790  1.00  0.00    -0.276 N 
HETATM   41  C32 UNL     1      -7.494  13.182  71.452  1.00  0.00     0.131 A 
BRANCH  40  42
HETATM   42  C29 UNL     1      -5.564  13.011  73.086  1.00  0.00     0.101 C 
HETATM   43  C30 UNL     1      -5.497  14.471  73.475  1.00  0.00     0.034 C 
HETATM   44  C31 UNL     1      -6.367  12.244  74.109  1.00  0.00     0.034 C 
ENDBRANCH  40  42
ENDBRANCH  35  37
ENDBRANCH  33  35
ENDBRANCH  25  33
ENDBRANCH  14  25
ENDBRANCH  12  14
ENDBRANCH   7   8
TORSDOF 10
BEGIN_RES HIS A  41
REMARK  2 active torsions:
REMARK  status: ('A' for Active; 'I' for Inactive)
REMARK    1  A    between atoms: CA   and  CB  
REMARK    2  A    between atoms: CB   and  CG  
ROOT
ATOM      1  CA  HIS A  41     -13.820  21.037  73.265  1.00 38.89     0.182 C 
ENDROOT
BRANCH   1   2
ATOM      2  CB  HIS A  41     -13.705  19.545  72.937  1.00 42.38     0.093 C 
BRANCH   2   3
ATOM      3  CG  HIS A  41     -14.074  19.201  71.528  1.00 37.90     0.028 A 
ATOM      4  CD2 HIS A  41     -13.469  19.486  70.351  1.00 37.33     0.114 A 
ATOM      5  NE2 HIS A  41     -14.231  18.921  69.357  1.00 41.88    -0.360 N 
ATOM      6  CE1 HIS A  41     -15.264  18.306  69.906  1.00 41.55     0.180 A 
ATOM      7  HE2 HIS A  41     -14.031  18.969  68.358  1.00  0.00     0.166 HD
ATOM      8  ND1 HIS A  41     -15.192  18.457  71.215  1.00 36.57    -0.354 N 
ATOM      9  HD1 HIS A  41     -15.859  18.082  71.890  1.00  0.00     0.166 HD
ENDBRANCH   2   3
ENDBRANCH   1   2
END_RES HIS A  41
BEGIN_RES CYS A 145
REMARK  1 active torsions:
REMARK  status: ('A' for Active; 'I' for Inactive)
REMARK    3  A    between atoms: CA   and  CB  
ROOT
ATOM     10  CA  CYS A 145     -14.607  19.162  64.101  1.00 29.71     0.186 C 
ENDROOT
BRANCH  10  11
ATOM     11  CB  CYS A 145     -14.100  19.110  65.541  1.00 31.75     0.120 C 
ATOM     12  SG  CYS A 145     -13.827  17.437  66.152  1.00 39.68    -0.095 SA
ENDBRANCH  10  11
END_RES CYS A 145
BEGIN_RES GLN A 189
REMARK  3 active torsions:
REMARK  status: ('A' for Active; 'I' for Inactive)
REMARK    4  A    between atoms: CA   and  CB  
REMARK    5  A    between atoms: CB   and  CG  
REMARK    6  A    between atoms: CG   and  CD  
REMARK       I    between atoms: CD   and  NE2 
ROOT
ATOM     13  CA  GLN A 189     -11.641  10.633  75.105  1.00 38.41     0.177 C 
ENDROOT
BRANCH  13  14
ATOM     14  CB  GLN A 189     -10.259  11.109  74.679  1.00 37.59     0.044 C 
BRANCH  14  15
ATOM     15  CG  GLN A 189      -9.979  10.913  73.198  1.00 45.60     0.105 C 
BRANCH  15  16
ATOM     16  CD  GLN A 189     -10.820  11.816  72.318  1.00 47.27     0.215 C 
ATOM     17  NE2 GLN A 189     -11.514  11.224  71.352  1.00 44.45    -0.370 N 
ATOM     18 2HE2 GLN A 189     -11.492  10.216  71.197  1.00  0.00     0.159 HD
ATOM     19 1HE2 GLN A 189     -12.079  11.832  70.759  1.00  0.00     0.159 HD
ATOM     20  OE1 GLN A 189     -10.845  13.033  72.505  1.00 41.09    -0.274 OA
ENDBRANCH  15  16
ENDBRANCH  14  15
ENDBRANCH  13  14
END_RES GLN A 189
BEGIN_RES ASN A 142
REMARK  2 active torsions:
REMARK  status: ('A' for Active; 'I' for Inactive)
REMARK    7  A    between atoms: CA   and  CB  
REMARK    8  A    between atoms: CB   and  CG  
REMARK       I    between atoms: CG   and  ND2 
ROOT
ATOM     21  CA  ASN A 142      -7.978  15.712  62.559  1.00 43.18     0.185 C 
ENDROOT
BRANCH  21  22
ATOM     22  CB  ASN A 142      -6.512  15.609  62.983  1.00 38.76     0.137 C 
BRANCH  22  23
ATOM     23  CG  ASN A 142      -6.349  15.348  64.468  1.00 50.71     0.217 C 
ATOM     24  ND2 ASN A 142      -6.198  14.080  64.833  1.00 55.08    -0.370 N 
ATOM     25 2HD2 ASN A 142      -6.192  13.312  64.160  1.00  0.00     0.159 HD
ATOM     26 1HD2 ASN A 142      -6.089  13.904  65.832  1.00  0.00     0.159 HD
ATOM     27  OD1 ASN A 142      -6.356  16.273  65.279  1.00 51.97    -0.274 OA
ENDBRANCH  22  23
ENDBRANCH  21  22
END_RES ASN A 142
BEGIN_RES LEU A  27
REMARK  2 active torsions:
REMARK  status: ('A' for Active; 'I' for Inactive)
REMARK    9  A    between atoms: CA   and  CB  
REMARK   10  A    between atoms: CB   and  CG  
ROOT
ATOM     28  CA  LEU A  27     -11.471  23.771  64.549  1.00 37.04     0.177 C 
ENDROOT
BRANCH  28  29
ATOM     29  CB  LEU A  27     -12.225  22.902  65.570  1.00 37.70     0.038 C 
BRANCH  29  30
ATOM     30  CG  LEU A  27     -12.614  23.438  66.948  1.00 36.32    -0.020 C 
ATOM     31  CD1 LEU A  27     -13.700  24.497  66.850  1.00 32.79     0.009 C 
ATOM     32  CD2 LEU A  27     -13.076  22.284  67.825  1.00 31.17     0.009 C 
ENDBRANCH  29  30
ENDBRANCH  28  29
END_RES LEU A  27
BEGIN_RES MET A  49
REMARK  3 active torsions:
REMARK  status: ('A' for Active; 'I' for Inactive)
REMARK   11  A    between atoms: CA   and  CB  
REMARK   12  A    between atoms: CB   and  CG  
REMARK   13  A    between atoms: CG   and  SD  
ROOT
ATOM     33  CA  MET A  49      -9.418  15.600  76.823  1.00 61.58     0.177 C 
ENDROOT
BRANCH  33  34
ATOM     34  CB  MET A  49      -8.930  15.410  75.386  1.00 62.15     0.045 C 
BRANCH  34  35
ATOM     35  CG  MET A  49      -9.719  16.213  74.364  1.00 60.24     0.076 C 
BRANCH  35  36
ATOM     36  SD  MET A  49     -11.272  16.862  75.010  1.00 77.15    -0.173 SA
ATOM     37  CE  MET A  49     -12.437  15.686  74.324  1.00 60.34     0.089 C 
ENDBRANCH  35  36
ENDBRANCH  34  35
ENDBRANCH  33  34
END_RES MET A  49
BEGIN_RES GLU A 166
REMARK  3 active torsions:
REMARK  status: ('A' for Active; 'I' for Inactive)
REMARK   14  A    between atoms: CA   and  CB  
REMARK   15  A    between atoms: CB   and  CG  
REMARK   16  A    between atoms: CG   and  CD  
ROOT
ATOM     38  CA  GLU A 166     -14.746   9.219  66.167  1.00 28.52     0.177 C 
ENDROOT
BRANCH  38  39
ATOM     39  CB  GLU A 166     -13.578   9.064  65.189  1.00 29.90     0.045 C 
BRANCH  39  40
ATOM     40  CG  GLU A 166     -13.595   7.804  64.344  1.00 36.08     0.116 C 
BRANCH  40  41
ATOM     41  CD  GLU A 166     -12.444   7.766  63.358  1.00 45.17     0.172 C 
ATOM     42  OE2 GLU A 166     -11.285   7.947  63.788  1.00 40.54    -0.648 OA
ATOM     43  OE1 GLU A 166     -12.694   7.545  62.153  1.00 50.70    -0.648 OA
ENDBRANCH  40  41
ENDBRANCH  39  40
ENDBRANCH  38  39
END_RES GLU A 166
BEGIN_RES HIS A 163
REMARK  2 active torsions:
REMARK  status: ('A' for Active; 'I' for Inactive)
REMARK   17  A    between atoms: CA   and  CB  
REMARK   18  A    between atoms: CB   and  CG  
ROOT
ATOM     44  CA  HIS A 163     -19.055  16.637  64.100  1.00 27.27     0.182 C 
ENDROOT
BRANCH  44  45
ATOM     45  CB  HIS A 163     -18.129  16.377  62.914  1.00 26.00     0.093 C 
BRANCH  45  46
ATOM     46  CG  HIS A 163     -17.102  15.322  63.179  1.00 26.66     0.028 A 
ATOM     47  ND1 HIS A 163     -15.754  15.597  63.241  1.00 26.97    -0.354 N 
ATOM     48  CE1 HIS A 163     -15.089  14.481  63.481  1.00 30.44     0.180 A 
ATOM     49  HD1 HIS A 163     -15.334  16.519  63.121  1.00  0.00     0.166 HD
ATOM     50  NE2 HIS A 163     -15.959  13.491  63.572  1.00 30.00    -0.360 N 
ATOM     51  CD2 HIS A 163     -17.225  13.989  63.386  1.00 29.24     0.114 A 
ATOM     52  HE2 HIS A 163     -15.727  12.514  63.751  1.00  0.00     0.166 HD
ENDBRANCH  45  46
ENDBRANCH  44  45
END_RES HIS A 163
BEGIN_RES HIS A 172
REMARK  2 active torsions:
REMARK  status: ('A' for Active; 'I' for Inactive)
REMARK   19  A    between atoms: CA   and  CB  
REMARK   20  A    between atoms: CB   and  CG  
ROOT
ATOM     53  CA  HIS A 172     -18.444   9.111  64.049  1.00 29.85     0.182 C 
ENDROOT
BRANCH  53  54
ATOM     54  CB  HIS A 172     -18.188  10.085  62.898  1.00 26.76     0.093 C 
BRANCH  54  55
ATOM     55  CG  HIS A 172     -16.879   9.862  62.207  1.00 28.76     0.028 A 
ATOM     56  CD2 HIS A 172     -15.618  10.214  62.552  1.00 29.36     0.114 A 
ATOM     57  NE2 HIS A 172     -14.783   9.752  61.564  1.00 33.77    -0.360 N 
ATOM     58  CE1 HIS A 172     -15.506   9.133  60.646  1.00 32.44     0.180 A 
ATOM     59  HE2 HIS A 172     -13.770   9.868  61.542  1.00  0.00     0.166 HD
ATOM     60  ND1 HIS A 172     -16.774   9.182  61.012  1.00 29.32    -0.354 N 
ATOM     61  HD1 HIS A 172     -17.554   8.780  60.492  1.00  0.00     0.166 HD
ENDBRANCH  54  55
ENDBRANCH  53  54
END_RES HIS A 172
BEGIN_RES THR A  26
REMARK  2 active torsions:
REMARK  status: ('A' for Active; 'I' for Inactive)
REMARK   21  A    between atoms: CA   and  CB  
REMARK   22  A    between atoms: CB   and  OG1 
ROOT
ATOM     62  CA  THR A  26      -8.224  25.031  66.060  1.00 43.98     0.205 C 
ENDROOT
BRANCH  62  63
ATOM     63  CB  THR A  26      -7.184  25.490  65.034  1.00 45.90     0.146 C 
ATOM     64  CG2 THR A  26      -7.853  26.076  63.789  1.00 47.20     0.042 C 
BRANCH  63  65
ATOM     65  OG1 THR A  26      -6.320  26.468  65.623  1.00 50.51    -0.393 OA
ATOM     66  HG1 THR A  26      -6.591  27.340  65.357  1.00  0.00     0.210 HD
ENDBRANCH  63  65
ENDBRANCH  62  63
END_RES THR A  26
ENDMDL
MODEL 2
REMARK VINA RESULT:      -7.7      2.087      3.813
REMARK  11 active torsions:
REMARK  status: ('A' for Active; 'I' for Inactive)
REMARK    1  A    between atoms: N1_7  and  C6_8 
REMARK    2  A    between atoms: C10_12  and  C11_13 
REMARK    3  A    between atoms: C11_13  and  C12_14 
REMARK    4  A    between atoms: C11_13  and  C18_23 
REMARK    5  A    between atoms: C12_14  and  C13_15 
REMARK    6  A    between atoms: C18_23  and  C19_24 
REMARK    7  A    between atoms: C18_23  and  N4_31 
REMARK    8  A    between atoms: C19_24  and  C20_25 
REMARK    9  A    between atoms: N4_31  and  C26_32 
REMARK   10  A    between atoms: C26_32  and  C27_34 
REMARK   11  A    between atoms: N6_37  and  C29_38 
ROOT
HETATM    1  C1  UNL     1     -10.592  18.025  73.587  1.00  0.00     0.040 C 
HETATM    2  C2  UNL     1     -10.159  18.050  72.177  1.00  0.00     0.026 C 
HETATM    3  C3  UNL     1      -8.975  18.524  71.869  1.00  0.00     0.149 A 
HETATM    4  O1  UNL     1      -8.024  19.034  72.753  1.00  0.00    -0.304 OA
HETATM    5  C4  UNL     1      -6.937  19.413  71.989  1.00  0.00     0.162 A 
HETATM    6  C5  UNL     1      -7.141  19.179  70.708  1.00  0.00     0.124 A 
HETATM    7  N1  UNL     1      -8.431  18.609  70.563  1.00  0.00    -0.301 N 
ENDROOT
BRANCH   7   8
HETATM    8  C6  UNL     1      -8.986  18.226  69.304  1.00  0.00     0.041 A 
HETATM    9  C7  UNL     1      -9.102  19.138  68.277  1.00  0.00     0.030 A 
HETATM   10  C8  UNL     1      -9.634  18.781  67.059  1.00  0.00     0.003 A 
HETATM   11  C9  UNL     1     -10.056  17.488  66.870  1.00  0.00     0.007 A 
HETATM   12  C10 UNL     1      -9.973  16.510  67.856  1.00  0.00    -0.050 A 
HETATM   13  C33 UNL     1      -9.418  16.964  69.063  1.00  0.00     0.037 A 
BRANCH  12  14
HETATM   14  C11 UNL     1     -10.438  15.138  67.660  1.00  0.00     0.043 C 
BRANCH  14  15
HETATM   15  C12 UNL     1     -10.924  14.704  66.339  1.00  0.00     0.036 C 
BRANCH  15  16
HETATM   16  C13 UNL     1     -10.069  14.022  65.370  1.00  0.00     0.088 C 
HETATM   17  C14 UNL     1     -10.873  12.723  64.975  1.00  0.00     0.045 C 
HETATM   18  C15 UNL     1     -10.233  12.233  63.715  1.00  0.00     0.129 C 
HETATM   19  N2  UNL     1      -8.827  12.028  63.914  1.00  0.00    -0.339 N 
HETATM   20  C16 UNL     1      -8.111  11.214  62.935  1.00  0.00     0.154 C 
HETATM   21  C17 UNL     1      -8.133  12.597  65.031  1.00  0.00     0.318 C 
HETATM   22  O2  UNL     1      -6.909  12.401  65.162  1.00  0.00    -0.247 OA
HETATM   23  N3  UNL     1      -8.872  13.373  65.959  1.00  0.00    -0.338 N 
HETATM   24  H21 UNL     1      -8.582  13.422  66.931  1.00  0.00     0.164 HD
ENDBRANCH  15  16
ENDBRANCH  14  15
BRANCH  14  25
HETATM   25  C18 UNL     1     -11.125  14.510  68.853  1.00  0.00     0.097 C 
BRANCH  25  26
HETATM   26  C19 UNL     1     -12.251  15.262  69.455  1.00  0.00     0.064 C 
BRANCH  26  27
HETATM   27  C20 UNL     1     -12.246  15.095  70.966  1.00  0.00    -0.056 A 
HETATM   28  C21 UNL     1     -11.178  14.511  71.613  1.00  0.00     0.007 A 
HETATM   29  C22 UNL     1     -11.183  14.364  73.002  1.00  0.00     0.001 A 
HETATM   30  C23 UNL     1     -12.264  14.803  73.752  1.00  0.00     0.000 A 
HETATM   31  C24 UNL     1     -13.320  15.382  73.113  1.00  0.00     0.001 A 
HETATM   32  C25 UNL     1     -13.304  15.521  71.738  1.00  0.00     0.007 A 
ENDBRANCH  26  27
ENDBRANCH  25  26
BRANCH  25  33
HETATM   33  N4  UNL     1     -11.657  13.192  68.512  1.00  0.00    -0.351 N 
HETATM   34  H30 UNL     1     -12.550  13.188  67.977  1.00  0.00     0.163 HD
BRANCH  33  35
HETATM   35  C26 UNL     1     -11.030  11.981  68.880  1.00  0.00     0.254 C 
HETATM   36  O3  UNL     1      -9.913  11.704  68.385  1.00  0.00    -0.268 OA
BRANCH  35  37
HETATM   37  C27 UNL     1     -11.696  11.093  69.819  1.00  0.00     0.068 A 
HETATM   38  C28 UNL     1     -12.662  11.435  70.742  1.00  0.00     0.157 A 
HETATM   39  N5  UNL     1     -13.015  10.345  71.405  1.00  0.00    -0.184 NA
HETATM   40  N6  UNL     1     -12.339   9.309  70.972  1.00  0.00    -0.276 N 
HETATM   41  C32 UNL     1     -11.522   9.734  70.001  1.00  0.00     0.131 A 
BRANCH  40  42
HETATM   42  C29 UNL     1     -12.512   7.958  71.513  1.00  0.00     0.101 C 
HETATM   43  C30 UNL     1     -13.976   7.579  71.473  1.00  0.00     0.034 C 
HETATM   44  C31 UNL     1     -11.713   7.005  70.657  1.00  0.00     0.034 C 
ENDBRANCH  40  42
ENDBRANCH  35  37
ENDBRANCH  33  35
ENDBRANCH  25  33
ENDBRANCH  14  25
ENDBRANCH  12  14
ENDBRANCH   7   8
TORSDOF 10
BEGIN_RES HIS A  41
REMARK  2 active torsions:
REMARK  status: ('A' for Active; 'I' for Inactive)
REMARK    1  A    between atoms: CA   and  CB  
REMARK    2  A    between atoms: CB   and  CG  
ROOT
ATOM      1  CA  HIS A  41     -13.820  21.037  73.265  1.00 38.89     0.182 C 
ENDROOT
BRANCH   1   2
ATOM      2  CB  HIS A  41     -13.705  19.545  72.937  1.00 42.38     0.093 C 
BRANCH   2   3
ATOM      3  CG  HIS A  41     -14.075  19.201  71.528  1.00 37.90     0.028 A 
ATOM      4  CD2 HIS A  41     -13.429  19.414  70.358  1.00 37.33     0.114 A 
ATOM      5  NE2 HIS A  41     -14.214  18.889  69.361  1.00 41.88    -0.360 N 
ATOM      6  CE1 HIS A  41     -15.301  18.366  69.901  1.00 41.55     0.180 A 
ATOM      7  HE2 HIS A  41     -13.994  18.900  68.365  1.00  0.00     0.166 HD
ATOM      8  ND1 HIS A  41     -15.240  18.538  71.209  1.00 36.57    -0.354 N 
ATOM      9  HD1 HIS A  41     -15.946  18.229  71.878  1.00  0.00     0.166 HD
ENDBRANCH   2   3
ENDBRANCH   1   2
END_RES HIS A  41
BEGIN_RES CYS A 145
REMARK  1 active torsions:
REMARK  status: ('A' for Active; 'I' for Inactive)
REMARK    3  A    between atoms: CA   and  CB  
ROOT
ATOM     10  CA  CYS A 145     -14.607  19.162  64.101  1.00 29.71     0.186 C 
ENDROOT
BRANCH  10  11
ATOM     11  CB  CYS A 145     -14.100  19.110  65.541  1.00 31.75     0.120 C 
ATOM     12  SG  CYS A 145     -13.716  17.445  66.113  1.00 39.68    -0.095 SA
ENDBRANCH  10  11
END_RES CYS A 145
BEGIN_RES GLN A 189
REMARK  3 active torsions:
REMARK  status: ('A' for Active; 'I' for Inactive)
REMARK    4  A    between atoms: CA   and  CB  
REMARK    5  A    between atoms: CB   and  CG  
REMARK    6  A    between atoms: CG   and  CD  
REMARK       I    between atoms: CD   and  NE2 
ROOT
ATOM     13  CA  GLN A 189     -11.641  10.633  75.105  1.00 38.41     0.177 C 
ENDROOT
BRANCH  13  14
ATOM     14  CB  GLN A 189     -10.259  11.109  74.679  1.00 37.59     0.044 C 
BRANCH  14  15
ATOM     15  CG  GLN A 189      -9.986  10.930  73.194  1.00 45.60     0.105 C 
BRANCH  15  16
ATOM     16  CD  GLN A 189      -9.124   9.719  72.899  1.00 47.27     0.215 C 
ATOM     17  NE2 GLN A 189      -7.948   9.955  72.327  1.00 44.45    -0.370 N 
ATOM     18 2HE2 GLN A 189      -7.628  10.894  72.093  1.00  0.00     0.159 HD
ATOM     19 1HE2 GLN A 189      -7.368   9.140  72.128  1.00  0.00     0.159 HD
ATOM     20  OE1 GLN A 189      -9.511   8.585  73.182  1.00 41.09    -0.274 OA
ENDBRANCH  15  16
ENDBRANCH  14  15
ENDBRANCH  13  14
END_RES GLN A 189
BEGIN_RES ASN A 142
REMARK  2 active torsions:
REMARK  status: ('A' for Active; 'I' for Inactive)
REMARK    7  A    between atoms: CA   and  CB  
REMARK    8  A    between atoms: CB   and  CG  
REMARK       I    between atoms: CG   and  ND2 
ROOT
ATOM     21  CA  ASN A 142      -7.978  15.712  62.559  1.00 43.18     0.185 C 
ENDROOT
BRANCH  21  22
ATOM     22  CB  ASN A 142      -6.512  15.609  62.983  1.00 38.76     0.137 C 
BRANCH  22  23
ATOM     23  CG  ASN A 142      -6.335  15.630  64.490  1.00 50.71     0.217 C 
ATOM     24  ND2 ASN A 142      -5.197  15.131  64.958  1.00 55.08    -0.370 N 
ATOM     25 2HD2 ASN A 142      -4.472  14.749  64.349  1.00  0.00     0.159 HD
ATOM     26 1HD2 ASN A 142      -5.078  15.144  65.971  1.00  0.00     0.159 HD
ATOM     27  OD1 ASN A 142      -7.209  16.089  65.224  1.00 51.97    -0.274 OA
ENDBRANCH  22  23
ENDBRANCH  21  22
END_RES ASN A 142
BEGIN_RES LEU A  27
REMARK  2 active torsions:
REMARK  status: ('A' for Active; 'I' for Inactive)
REMARK    9  A    between atoms: CA   and  CB  
REMARK   10  A    between atoms: CB   and  CG  
ROOT
ATOM     28  CA  LEU A  27     -11.471  23.771  64.549  1.00 37.04     0.177 C 
ENDROOT
BRANCH  28  29
ATOM     29  CB  LEU A  27     -12.225  22.902  65.570  1.00 37.70     0.038 C 
BRANCH  29  30
ATOM     30  CG  LEU A  27     -12.566  23.420  66.967  1.00 36.32    -0.020 C 
ATOM     31  CD1 LEU A  27     -13.809  24.295  66.952  1.00 32.79     0.009 C 
ATOM     32  CD2 LEU A  27     -12.760  22.239  67.908  1.00 31.17     0.009 C 
ENDBRANCH  29  30
ENDBRANCH  28  29
END_RES LEU A  27
BEGIN_RES MET A  49
REMARK  3 active torsions:
REMARK  status: ('A' for Active; 'I' for Inactive)
REMARK   11  A    between atoms: CA   and  CB  
REMARK   12  A    between atoms: CB   and  CG  
REMARK   13  A    between atoms: CG   and  SD  
ROOT
ATOM     33  CA  MET A  49      -9.418  15.600  76.823  1.00 61.58     0.177 C 
ENDROOT
BRANCH  33  34
ATOM     34  CB  MET A  49      -8.930  15.410  75.386  1.00 62.15     0.045 C 
BRANCH  34  35
ATOM     35  CG  MET A  49      -7.707  14.514  75.272  1.00 60.24     0.076 C 
BRANCH  35  36
ATOM     36  SD  MET A  49      -7.495  13.802  73.629  1.00 77.15    -0.173 SA
ATOM     37  CE  MET A  49      -7.447  15.285  72.624  1.00 60.34     0.089 C 
ENDBRANCH  35  36
ENDBRANCH  34  35
ENDBRANCH  33  34
END_RES MET A  49
BEGIN_RES GLU A 166
REMARK  3 active torsions:
REMARK  status: ('A' for Active; 'I' for Inactive)
REMARK   14  A    between atoms: CA   and  CB  
REMARK   15  A    between atoms: CB   and  CG  
REMARK   16  A    between atoms: CG   and  CD  
ROOT
ATOM     38  CA  GLU A 166     -14.746   9.219  66.167  1.00 28.52     0.177 C 
ENDROOT
BRANCH  38  39
ATOM     39  CB  GLU A 166     -13.578   9.064  65.189  1.00 29.90     0.045 C 
BRANCH  39  40
ATOM     40  CG  GLU A 166     -13.598   7.807  64.340  1.00 36.08     0.116 C 
BRANCH  40  41
ATOM     41  CD  GLU A 166     -12.446   7.769  63.354  1.00 45.17     0.172 C 
ATOM     42  OE2 GLU A 166     -12.692   7.484  62.163  1.00 40.54    -0.648 OA
ATOM     43  OE1 GLU A 166     -11.296   8.035  63.766  1.00 50.70    -0.648 OA
ENDBRANCH  40  41
ENDBRANCH  39  40
ENDBRANCH  38  39
END_RES GLU A 166
BEGIN_RES HIS A 163
REMARK  2 active torsions:
REMARK  status: ('A' for Active; 'I' for Inactive)
REMARK   17  A    between atoms: CA   and  CB  
REMARK   18  A    between atoms: CB   and  CG  
ROOT
ATOM     44  CA  HIS A 163     -19.055  16.637  64.100  1.00 27.27     0.182 C 
ENDROOT
BRANCH  44  45
ATOM     45  CB  HIS A 163     -18.129  16.377  62.914  1.00 26.00     0.093 C 
BRANCH  45  46
ATOM     46  CG  HIS A 163     -17.087  15.339  63.188  1.00 26.66     0.028 A 
ATOM     47  ND1 HIS A 163     -15.747  15.642  63.289  1.00 26.97    -0.354 N 
ATOM     48  CE1 HIS A 163     -15.064  14.535  63.527  1.00 30.44     0.180 A 
ATOM     49  HD1 HIS A 163     -15.344  16.574  63.196  1.00  0.00     0.166 HD
ATOM     50  NE2 HIS A 163     -15.915  13.525  63.578  1.00 30.00    -0.360 N 
ATOM     51  CD2 HIS A 163     -17.186  14.001  63.368  1.00 29.24     0.114 A 
ATOM     52  HE2 HIS A 163     -15.667  12.550  63.745  1.00  0.00     0.166 HD
ENDBRANCH  45  46
ENDBRANCH  44  45
END_RES HIS A 163
BEGIN_RES HIS A 172
REMARK  2 active torsions:
REMARK  status: ('A' for Active; 'I' for Inactive)
REMARK   19  A    between atoms: CA   and  CB  
REMARK   20  A    between atoms: CB   and  CG  
ROOT
ATOM     53  CA  HIS A 172     -18.444   9.111  64.049  1.00 29.85     0.182 C 
ENDROOT
BRANCH  53  54
ATOM     54  CB  HIS A 172     -18.188  10.085  62.898  1.00 26.76     0.093 C 
BRANCH  54  55
ATOM     55  CG  HIS A 172     -16.866   9.882  62.226  1.00 28.76     0.028 A 
ATOM     56  CD2 HIS A 172     -15.617  10.265  62.582  1.00 29.36     0.114 A 
ATOM     57  NE2 HIS A 172     -14.760   9.808  61.611  1.00 33.77    -0.360 N 
ATOM     58  CE1 HIS A 172     -15.458   9.162  60.692  1.00 32.44     0.180 A 
ATOM     59  HE2 HIS A 172     -13.750   9.945  61.600  1.00  0.00     0.166 HD
ATOM     60  ND1 HIS A 172     -16.732   9.189  61.042  1.00 29.32    -0.354 N 
ATOM     61  HD1 HIS A 172     -17.497   8.764  60.518  1.00  0.00     0.166 HD
ENDBRANCH  54  55
ENDBRANCH  53  54
END_RES HIS A 172
BEGIN_RES THR A  26
REMARK  2 active torsions:
REMARK  status: ('A' for Active; 'I' for Inactive)
REMARK   21  A    between atoms: CA   and  CB  
REMARK   22  A    between atoms: CB   and  OG1 
ROOT
ATOM     62  CA  THR A  26      -8.224  25.031  66.060  1.00 43.98     0.205 C 
ENDROOT
BRANCH  62  63
ATOM     63  CB  THR A  26      -7.184  25.490  65.034  1.00 45.90     0.146 C 
ATOM     64  CG2 THR A  26      -7.851  25.967  63.742  1.00 47.20     0.042 C 
BRANCH  63  65
ATOM     65  OG1 THR A  26      -6.391  26.546  65.586  1.00 50.51    -0.393 OA
ATOM     66  HG1 THR A  26      -5.663  26.740  65.007  1.00  0.00     0.210 HD
ENDBRANCH  63  65
ENDBRANCH  62  63
END_RES THR A  26
ENDMDL
MODEL 3
REMARK VINA RESULT:      -7.7      1.937      4.737
REMARK  11 active torsions:
REMARK  status: ('A' for Active; 'I' for Inactive)
REMARK    1  A    between atoms: N1_7  and  C6_8 
REMARK    2  A    between atoms: C10_12  and  C11_13 
REMARK    3  A    between atoms: C11_13  and  C12_14 
REMARK    4  A    between atoms: C11_13  and  C18_23 
REMARK    5  A    between atoms: C12_14  and  C13_15 
REMARK    6  A    between atoms: C18_23  and  C19_24 
REMARK    7  A    between atoms: C18_23  and  N4_31 
REMARK    8  A    between atoms: C19_24  and  C20_25 
REMARK    9  A    between atoms: N4_31  and  C26_32 
REMARK   10  A    between atoms: C26_32  and  C27_34 
REMARK   11  A    between atoms: N6_37  and  C29_38 
ROOT
HETATM    1  C1  UNL     1      -6.305  18.436  67.594  1.00  0.00     0.040 C 
HETATM    2  C2  UNL     1      -6.543  17.666  68.830  1.00  0.00     0.026 C 
HETATM    3  C3  UNL     1      -6.740  18.298  69.962  1.00  0.00     0.149 A 
HETATM    4  O1  UNL     1      -6.755  19.681  70.155  1.00  0.00    -0.304 OA
HETATM    5  C4  UNL     1      -6.998  19.891  71.498  1.00  0.00     0.162 A 
HETATM    6  C5  UNL     1      -7.134  18.752  72.149  1.00  0.00     0.124 A 
HETATM    7  N1  UNL     1      -6.980  17.691  71.220  1.00  0.00    -0.301 N 
ENDROOT
BRANCH   7   8
HETATM    8  C6  UNL     1      -7.066  16.312  71.579  1.00  0.00     0.041 A 
HETATM    9  C7  UNL     1      -6.240  15.780  72.546  1.00  0.00     0.030 A 
HETATM   10  C8  UNL     1      -6.315  14.453  72.900  1.00  0.00     0.003 A 
HETATM   11  C9  UNL     1      -7.234  13.647  72.274  1.00  0.00     0.007 A 
HETATM   12  C10 UNL     1      -8.102  14.107  71.289  1.00  0.00    -0.050 A 
HETATM   13  C33 UNL     1      -7.954  15.472  70.993  1.00  0.00     0.037 A 
BRANCH  12  14
HETATM   14  C11 UNL     1      -9.068  13.245  70.610  1.00  0.00     0.043 C 
BRANCH  14  15
HETATM   15  C12 UNL     1      -8.618  12.010  69.946  1.00  0.00     0.036 C 
BRANCH  15  16
HETATM   16  C13 UNL     1      -7.543  11.996  68.955  1.00  0.00     0.088 C 
HETATM   17  C14 UNL     1      -8.046  11.001  67.839  1.00  0.00     0.045 C 
HETATM   18  C15 UNL     1      -7.182  11.277  66.649  1.00  0.00     0.129 C 
HETATM   19  N2  UNL     1      -5.796  11.139  66.993  1.00  0.00    -0.339 N 
HETATM   20  C16 UNL     1      -4.833  11.004  65.903  1.00  0.00     0.154 C 
HETATM   21  C17 UNL     1      -5.354  11.134  68.357  1.00  0.00     0.318 C 
HETATM   22  O2  UNL     1      -4.140  11.020  68.611  1.00  0.00    -0.247 OA
HETATM   23  N3  UNL     1      -6.327  11.260  69.379  1.00  0.00    -0.338 N 
HETATM   24  H21 UNL     1      -6.169  10.841  70.291  1.00  0.00     0.164 HD
ENDBRANCH  15  16
ENDBRANCH  14  15
BRANCH  14  25
HETATM   25  C18 UNL     1     -10.225  13.963  69.951  1.00  0.00     0.097 C 
BRANCH  25  26
HETATM   26  C19 UNL     1     -11.037  13.188  68.984  1.00  0.00     0.064 C 
BRANCH  26  27
HETATM   27  C20 UNL     1     -10.895  13.775  67.589  1.00  0.00    -0.056 A 
HETATM   28  C21 UNL     1      -9.676  14.227  67.129  1.00  0.00     0.007 A 
HETATM   29  C22 UNL     1      -9.557  14.764  65.845  1.00  0.00     0.001 A 
HETATM   30  C23 UNL     1     -10.663  14.849  65.013  1.00  0.00     0.000 A 
HETATM   31  C24 UNL     1     -11.868  14.402  65.466  1.00  0.00     0.001 A 
HETATM   32  C25 UNL     1     -11.974  13.873  66.739  1.00  0.00     0.007 A 
ENDBRANCH  26  27
ENDBRANCH  25  26
BRANCH  25  33
HETATM   33  N4  UNL     1     -11.163  14.465  70.953  1.00  0.00    -0.351 N 
HETATM   34  H30 UNL     1     -11.212  13.923  71.841  1.00  0.00     0.163 HD
BRANCH  33  35
HETATM   35  C26 UNL     1     -11.975  15.604  70.756  1.00  0.00     0.254 C 
HETATM   36  O3  UNL     1     -13.175  15.558  71.113  1.00  0.00    -0.268 OA
BRANCH  35  37
HETATM   37  C27 UNL     1     -11.399  16.792  70.147  1.00  0.00     0.068 A 
HETATM   38  C28 UNL     1     -10.668  17.776  70.777  1.00  0.00     0.157 A 
HETATM   39  N5  UNL     1     -10.323  18.685  69.879  1.00  0.00    -0.184 NA
HETATM   40  N6  UNL     1     -10.783  18.355  68.697  1.00  0.00    -0.276 N 
HETATM   41  C32 UNL     1     -11.447  17.200  68.827  1.00  0.00     0.131 A 
BRANCH  40  42
HETATM   42  C29 UNL     1     -10.560  19.165  67.497  1.00  0.00     0.101 C 
HETATM   43  C30 UNL     1      -9.538  20.241  67.794  1.00  0.00     0.034 C 
HETATM   44  C31 UNL     1     -10.046  18.257  66.406  1.00  0.00     0.034 C 
ENDBRANCH  40  42
ENDBRANCH  35  37
ENDBRANCH  33  35
ENDBRANCH  25  33
ENDBRANCH  14  25
ENDBRANCH  12  14
ENDBRANCH   7   8
TORSDOF 10
BEGIN_RES HIS A  41
REMARK  2 active torsions:
REMARK  status: ('A' for Active; 'I' for Inactive)
REMARK    1  A    between atoms: CA   and  CB  
REMARK    2  A    between atoms: CB   and  CG  
ROOT
ATOM      1  CA  HIS A  41     -13.820  21.037  73.265  1.00 38.89     0.182 C 
ENDROOT
BRANCH   1   2
ATOM      2  CB  HIS A  41     -13.705  19.545  72.937  1.00 42.38     0.093 C 
BRANCH   2   3
ATOM      3  CG  HIS A  41     -14.124  19.194  71.544  1.00 37.90     0.028 A 
ATOM      4  CD2 HIS A  41     -13.763  19.710  70.345  1.00 37.33     0.114 A 
ATOM      5  NE2 HIS A  41     -14.447  19.010  69.381  1.00 41.88    -0.360 N 
ATOM      6  CE1 HIS A  41     -15.196  18.093  69.967  1.00 41.55     0.180 A 
ATOM      7  HE2 HIS A  41     -14.386  19.172  68.376  1.00  0.00     0.166 HD
ATOM      8  ND1 HIS A  41     -15.018  18.180  71.272  1.00 36.57    -0.354 N 
ATOM      9  HD1 HIS A  41     -15.471  17.590  71.970  1.00  0.00     0.166 HD
ENDBRANCH   2   3
ENDBRANCH   1   2
END_RES HIS A  41
BEGIN_RES CYS A 145
REMARK  1 active torsions:
REMARK  status: ('A' for Active; 'I' for Inactive)
REMARK    3  A    between atoms: CA   and  CB  
ROOT
ATOM     10  CA  CYS A 145     -14.607  19.162  64.101  1.00 29.71     0.186 C 
ENDROOT
BRANCH  10  11
ATOM     11  CB  CYS A 145     -14.100  19.110  65.541  1.00 31.75     0.120 C 
ATOM     12  SG  CYS A 145     -13.813  17.437  66.147  1.00 39.68    -0.095 SA
ENDBRANCH  10  11
END_RES CYS A 145
BEGIN_RES GLN A 189
REMARK  3 active torsions:
REMARK  status: ('A' for Active; 'I' for Inactive)
REMARK    4  A    between atoms: CA   and  CB  
REMARK    5  A    between atoms: CB   and  CG  
REMARK    6  A    between atoms: CG   and  CD  
REMARK       I    between atoms: CD   and  NE2 
ROOT
ATOM     13  CA  GLN A 189     -11.641  10.633  75.105  1.00 38.41     0.177 C 
ENDROOT
BRANCH  13  14
ATOM     14  CB  GLN A 189     -10.259  11.109  74.679  1.00 37.59     0.044 C 
BRANCH  14  15
ATOM     15  CG  GLN A 189     -10.029  11.039  73.178  1.00 45.60     0.105 C 
BRANCH  15  16
ATOM     16  CD  GLN A 189     -11.314  11.150  72.382  1.00 47.27     0.215 C 
ATOM     17  NE2 GLN A 189     -11.604  10.131  71.580  1.00 44.45    -0.370 N 
ATOM     18 2HE2 GLN A 189     -11.005   9.311  71.493  1.00  0.00     0.159 HD
ATOM     19 1HE2 GLN A 189     -12.469  10.207  71.044  1.00  0.00     0.159 HD
ATOM     20  OE1 GLN A 189     -12.037  12.141  72.488  1.00 41.09    -0.274 OA
ENDBRANCH  15  16
ENDBRANCH  14  15
ENDBRANCH  13  14
END_RES GLN A 189
BEGIN_RES ASN A 142
REMARK  2 active torsions:
REMARK  status: ('A' for Active; 'I' for Inactive)
REMARK    7  A    between atoms: CA   and  CB  
REMARK    8  A    between atoms: CB   and  CG  
REMARK       I    between atoms: CG   and  ND2 
ROOT
ATOM     21  CA  ASN A 142      -7.978  15.712  62.559  1.00 43.18     0.185 C 
ENDROOT
BRANCH  21  22
ATOM     22  CB  ASN A 142      -6.512  15.609  62.983  1.00 38.76     0.137 C 
BRANCH  22  23
ATOM     23  CG  ASN A 142      -6.294  14.605  64.099  1.00 50.71     0.217 C 
ATOM     24  ND2 ASN A 142      -5.663  15.050  65.179  1.00 55.08    -0.370 N 
ATOM     25 2HD2 ASN A 142      -5.335  16.012  65.267  1.00  0.00     0.159 HD
ATOM     26 1HD2 ASN A 142      -5.516  14.374  65.930  1.00  0.00     0.159 HD
ATOM     27  OD1 ASN A 142      -6.689  13.444  63.993  1.00 51.97    -0.274 OA
ENDBRANCH  22  23
ENDBRANCH  21  22
END_RES ASN A 142
BEGIN_RES LEU A  27
REMARK  2 active torsions:
REMARK  status: ('A' for Active; 'I' for Inactive)
REMARK    9  A    between atoms: CA   and  CB  
REMARK   10  A    between atoms: CB   and  CG  
ROOT
ATOM     28  CA  LEU A  27     -11.471  23.771  64.549  1.00 37.04     0.177 C 
ENDROOT
BRANCH  28  29
ATOM     29  CB  LEU A  27     -12.225  22.902  65.570  1.00 37.70     0.038 C 
BRANCH  29  30
ATOM     30  CG  LEU A  27     -12.568  23.420  66.967  1.00 36.32    -0.020 C 
ATOM     31  CD1 LEU A  27     -13.803  24.306  66.947  1.00 32.79     0.009 C 
ATOM     32  CD2 LEU A  27     -12.777  22.240  67.904  1.00 31.17     0.009 C 
ENDBRANCH  29  30
ENDBRANCH  28  29
END_RES LEU A  27
BEGIN_RES MET A  49
REMARK  3 active torsions:
REMARK  status: ('A' for Active; 'I' for Inactive)
REMARK   11  A    between atoms: CA   and  CB  
REMARK   12  A    between atoms: CB   and  CG  
REMARK   13  A    between atoms: CG   and  SD  
ROOT
ATOM     33  CA  MET A  49      -9.418  15.600  76.823  1.00 61.58     0.177 C 
ENDROOT
BRANCH  33  34
ATOM     34  CB  MET A  49      -8.930  15.410  75.386  1.00 62.15     0.045 C 
BRANCH  34  35
ATOM     35  CG  MET A  49      -9.652  16.288  74.376  1.00 60.24     0.076 C 
BRANCH  35  36
ATOM     36  SD  MET A  49     -11.211  16.952  74.994  1.00 77.15    -0.173 SA
ATOM     37  CE  MET A  49     -12.347  15.657  74.500  1.00 60.34     0.089 C 
ENDBRANCH  35  36
ENDBRANCH  34  35
ENDBRANCH  33  34
END_RES MET A  49
BEGIN_RES GLU A 166
REMARK  3 active torsions:
REMARK  status: ('A' for Active; 'I' for Inactive)
REMARK   14  A    between atoms: CA   and  CB  
REMARK   15  A    between atoms: CB   and  CG  
REMARK   16  A    between atoms: CG   and  CD  
ROOT
ATOM     38  CA  GLU A 166     -14.746   9.219  66.167  1.00 28.52     0.177 C 
ENDROOT
BRANCH  38  39
ATOM     39  CB  GLU A 166     -13.578   9.064  65.189  1.00 29.90     0.045 C 
BRANCH  39  40
ATOM     40  CG  GLU A 166     -12.445  10.058  65.361  1.00 36.08     0.116 C 
BRANCH  40  41
ATOM     41  CD  GLU A 166     -12.413  11.081  64.241  1.00 45.17     0.172 C 
ATOM     42  OE2 GLU A 166     -11.351  11.225  63.597  1.00 40.54    -0.648 OA
ATOM     43  OE1 GLU A 166     -13.450  11.733  63.995  1.00 50.70    -0.648 OA
ENDBRANCH  40  41
ENDBRANCH  39  40
ENDBRANCH  38  39
END_RES GLU A 166
BEGIN_RES HIS A 163
REMARK  2 active torsions:
REMARK  status: ('A' for Active; 'I' for Inactive)
REMARK   17  A    between atoms: CA   and  CB  
REMARK   18  A    between atoms: CB   and  CG  
ROOT
ATOM     44  CA  HIS A 163     -19.055  16.637  64.100  1.00 27.27     0.182 C 
ENDROOT
BRANCH  44  45
ATOM     45  CB  HIS A 163     -18.129  16.377  62.914  1.00 26.00     0.093 C 
BRANCH  45  46
ATOM     46  CG  HIS A 163     -17.096  15.328  63.183  1.00 26.66     0.028 A 
ATOM     47  ND1 HIS A 163     -15.751  15.615  63.262  1.00 26.97    -0.354 N 
ATOM     48  CE1 HIS A 163     -15.079  14.502  63.500  1.00 30.44     0.180 A 
ATOM     49  HD1 HIS A 163     -15.338  16.541  63.154  1.00  0.00     0.166 HD
ATOM     50  NE2 HIS A 163     -15.942  13.504  63.574  1.00 30.00    -0.360 N 
ATOM     51  CD2 HIS A 163     -17.210  13.993  63.378  1.00 29.24     0.114 A 
ATOM     52  HE2 HIS A 163     -15.703  12.527  63.747  1.00  0.00     0.166 HD
ENDBRANCH  45  46
ENDBRANCH  44  45
END_RES HIS A 163
BEGIN_RES HIS A 172
REMARK  2 active torsions:
REMARK  status: ('A' for Active; 'I' for Inactive)
REMARK   19  A    between atoms: CA   and  CB  
REMARK   20  A    between atoms: CB   and  CG  
ROOT
ATOM     53  CA  HIS A 172     -18.444   9.111  64.049  1.00 29.85     0.182 C 
ENDROOT
BRANCH  53  54
ATOM     54  CB  HIS A 172     -18.188  10.085  62.898  1.00 26.76     0.093 C 
BRANCH  54  55
ATOM     55  CG  HIS A 172     -16.952   9.772  62.114  1.00 28.76     0.028 A 
ATOM     56  CD2 HIS A 172     -16.785   9.139  60.929  1.00 29.36     0.114 A 
ATOM     57  NE2 HIS A 172     -15.438   9.131  60.659  1.00 33.77    -0.360 N 
ATOM     58  CE1 HIS A 172     -14.800   9.742  61.643  1.00 32.44     0.180 A 
ATOM     59  HE2 HIS A 172     -15.001   8.720  59.835  1.00  0.00     0.166 HD
ATOM     60  ND1 HIS A 172     -15.692  10.142  62.532  1.00 29.32    -0.354 N 
ATOM     61  HD1 HIS A 172     -15.481  10.646  63.394  1.00  0.00     0.166 HD
ENDBRANCH  54  55
ENDBRANCH  53  54
END_RES HIS A 172
BEGIN_RES THR A  26
REMARK  2 active torsions:
REMARK  status: ('A' for Active; 'I' for Inactive)
REMARK   21  A    between atoms: CA   and  CB  
REMARK   22  A    between atoms: CB   and  OG1 
ROOT
ATOM     62  CA  THR A  26      -8.224  25.031  66.060  1.00 43.98     0.205 C 
ENDROOT
BRANCH  62  63
ATOM     63  CB  THR A  26      -7.184  25.490  65.034  1.00 45.90     0.146 C 
ATOM     64  CG2 THR A  26      -7.853  26.094  63.798  1.00 47.20     0.042 C 
BRANCH  63  65
ATOM     65  OG1 THR A  26      -6.308  26.454  65.629  1.00 50.51    -0.393 OA
ATOM     66  HG1 THR A  26      -6.709  26.814  66.412  1.00  0.00     0.210 HD
ENDBRANCH  63  65
ENDBRANCH  62  63
END_RES THR A  26
ENDMDL
MODEL 4
REMARK VINA RESULT:      -7.6      2.255      5.212
REMARK  11 active torsions:
REMARK  status: ('A' for Active; 'I' for Inactive)
REMARK    1  A    between atoms: N1_7  and  C6_8 
REMARK    2  A    between atoms: C10_12  and  C11_13 
REMARK    3  A    between atoms: C11_13  and  C12_14 
REMARK    4  A    between atoms: C11_13  and  C18_23 
REMARK    5  A    between atoms: C12_14  and  C13_15 
REMARK    6  A    between atoms: C18_23  and  C19_24 
REMARK    7  A    between atoms: C18_23  and  N4_31 
REMARK    8  A    between atoms: C19_24  and  C20_25 
REMARK    9  A    between atoms: N4_31  and  C26_32 
REMARK   10  A    between atoms: C26_32  and  C27_34 
REMARK   11  A    between atoms: N6_37  and  C29_38 
ROOT
HETATM    1  C1  UNL     1      -7.601  13.790  68.457  1.00  0.00     0.040 C 
HETATM    2  C2  UNL     1      -8.161  15.068  67.979  1.00  0.00     0.026 C 
HETATM    3  C3  UNL     1      -8.983  15.074  66.956  1.00  0.00     0.149 A 
HETATM    4  O1  UNL     1      -9.415  13.966  66.224  1.00  0.00    -0.304 OA
HETATM    5  C4  UNL     1     -10.265  14.445  65.247  1.00  0.00     0.162 A 
HETATM    6  C5  UNL     1     -10.393  15.756  65.316  1.00  0.00     0.124 A 
HETATM    7  N1  UNL     1      -9.595  16.221  66.391  1.00  0.00    -0.301 N 
ENDROOT
BRANCH   7   8
HETATM    8  C6  UNL     1      -9.493  17.598  66.758  1.00  0.00     0.041 A 
HETATM    9  C7  UNL     1     -10.599  18.420  66.731  1.00  0.00     0.030 A 
HETATM   10  C8  UNL     1     -10.512  19.747  67.082  1.00  0.00     0.003 A 
HETATM   11  C9  UNL     1      -9.297  20.257  67.467  1.00  0.00     0.007 A 
HETATM   12  C10 UNL     1      -8.135  19.494  67.520  1.00  0.00    -0.050 A 
HETATM   13  C33 UNL     1      -8.318  18.153  67.145  1.00  0.00     0.037 A 
BRANCH  12  14
HETATM   14  C11 UNL     1      -6.837  20.040  67.913  1.00  0.00     0.043 C 
BRANCH  14  15
HETATM   15  C12 UNL     1      -6.056  20.846  66.960  1.00  0.00     0.036 C 
BRANCH  15  16
HETATM   16  C13 UNL     1      -6.296  20.813  65.518  1.00  0.00     0.088 C 
HETATM   17  C14 UNL     1      -5.182  19.849  64.953  1.00  0.00     0.045 C 
HETATM   18  C15 UNL     1      -5.644  19.477  63.579  1.00  0.00     0.129 C 
HETATM   19  N2  UNL     1      -5.872  20.655  62.792  1.00  0.00    -0.339 N 
HETATM   20  C16 UNL     1      -5.964  20.499  61.342  1.00  0.00     0.154 C 
HETATM   21  C17 UNL     1      -6.008  21.949  63.393  1.00  0.00     0.318 C 
HETATM   22  O2  UNL     1      -6.213  22.945  62.672  1.00  0.00    -0.247 OA
HETATM   23  N3  UNL     1      -5.904  22.051  64.802  1.00  0.00    -0.338 N 
HETATM   24  H21 UNL     1      -5.559  22.906  65.230  1.00  0.00     0.164 HD
ENDBRANCH  15  16
ENDBRANCH  14  15
BRANCH  14  25
HETATM   25  C18 UNL     1      -6.033  19.180  68.862  1.00  0.00     0.097 C 
BRANCH  25  26
HETATM   26  C19 UNL     1      -4.564  19.149  68.665  1.00  0.00     0.064 C 
BRANCH  26  27
HETATM   27  C20 UNL     1      -4.136  17.800  68.112  1.00  0.00    -0.056 A 
HETATM   28  C21 UNL     1      -4.718  16.632  68.557  1.00  0.00     0.007 A 
HETATM   29  C22 UNL     1      -4.317  15.398  68.040  1.00  0.00     0.001 A 
HETATM   30  C23 UNL     1      -3.327  15.328  67.071  1.00  0.00     0.000 A 
HETATM   31  C24 UNL     1      -2.752  16.483  66.630  1.00  0.00     0.001 A 
HETATM   32  C25 UNL     1      -3.157  17.699  67.149  1.00  0.00     0.007 A 
ENDBRANCH  26  27
ENDBRANCH  25  26
BRANCH  25  33
HETATM   33  N4  UNL     1      -6.245  19.596  70.247  1.00  0.00    -0.351 N 
HETATM   34  H30 UNL     1      -5.928  20.559  70.485  1.00  0.00     0.163 HD
BRANCH  33  35
HETATM   35  C26 UNL     1      -6.828  18.765  71.228  1.00  0.00     0.254 C 
HETATM   36  O3  UNL     1      -6.132  18.402  72.205  1.00  0.00    -0.268 OA
BRANCH  35  37
HETATM   37  C27 UNL     1      -8.215  18.353  71.078  1.00  0.00     0.068 A 
HETATM   38  C28 UNL     1      -9.319  19.174  70.979  1.00  0.00     0.157 A 
HETATM   39  N5  UNL     1     -10.398  18.418  70.854  1.00  0.00    -0.184 NA
HETATM   40  N6  UNL     1     -10.067  17.149  70.864  1.00  0.00    -0.276 N 
HETATM   41  C32 UNL     1      -8.738  17.076  71.000  1.00  0.00     0.131 A 
BRANCH  40  42
HETATM   42  C29 UNL     1     -11.047  16.067  70.740  1.00  0.00     0.101 C 
HETATM   43  C30 UNL     1     -11.694  16.122  69.373  1.00  0.00     0.034 C 
HETATM   44  C31 UNL     1     -10.320  14.755  70.911  1.00  0.00     0.034 C 
ENDBRANCH  40  42
ENDBRANCH  35  37
ENDBRANCH  33  35
ENDBRANCH  25  33
ENDBRANCH  14  25
ENDBRANCH  12  14
ENDBRANCH   7   8
TORSDOF 10
BEGIN_RES HIS A  41
REMARK  2 active torsions:
REMARK  status: ('A' for Active; 'I' for Inactive)
REMARK    1  A    between atoms: CA   and  CB  
REMARK    2  A    between atoms: CB   and  CG  
ROOT
ATOM      1  CA  HIS A  41     -13.820  21.037  73.265  1.00 38.89     0.182 C 
ENDROOT
BRANCH   1   2
ATOM      2  CB  HIS A  41     -13.705  19.545  72.937  1.00 42.38     0.093 C 
BRANCH   2   3
ATOM      3  CG  HIS A  41     -14.013  19.209  71.512  1.00 37.90     0.028 A 
ATOM      4  CD2 HIS A  41     -15.056  18.549  70.955  1.00 37.33     0.114 A 
ATOM      5  NE2 HIS A  41     -14.843  18.528  69.598  1.00 41.88    -0.360 N 
ATOM      6  CE1 HIS A  41     -13.713  19.159  69.331  1.00 41.55     0.180 A 
ATOM      7  HE2 HIS A  41     -15.458  18.095  68.908  1.00  0.00     0.166 HD
ATOM      8  ND1 HIS A  41     -13.193  19.582  70.468  1.00 36.57    -0.354 N 
ATOM      9  HD1 HIS A  41     -12.322  20.104  70.560  1.00  0.00     0.166 HD
ENDBRANCH   2   3
ENDBRANCH   1   2
END_RES HIS A  41
BEGIN_RES CYS A 145
REMARK  1 active torsions:
REMARK  status: ('A' for Active; 'I' for Inactive)
REMARK    3  A    between atoms: CA   and  CB  
ROOT
ATOM     10  CA  CYS A 145     -14.607  19.162  64.101  1.00 29.71     0.186 C 
ENDROOT
BRANCH  10  11
ATOM     11  CB  CYS A 145     -14.100  19.110  65.541  1.00 31.75     0.120 C 
ATOM     12  SG  CYS A 145     -13.856  17.436  66.162  1.00 39.68    -0.095 SA
ENDBRANCH  10  11
END_RES CYS A 145
BEGIN_RES GLN A 189
REMARK  3 active torsions:
REMARK  status: ('A' for Active; 'I' for Inactive)
REMARK    4  A    between atoms: CA   and  CB  
REMARK    5  A    between atoms: CB   and  CG  
REMARK    6  A    between atoms: CG   and  CD  
REMARK       I    between atoms: CD   and  NE2 
ROOT
ATOM     13  CA  GLN A 189     -11.641  10.633  75.105  1.00 38.41     0.177 C 
ENDROOT
BRANCH  13  14
ATOM     14  CB  GLN A 189     -10.259  11.109  74.679  1.00 37.59     0.044 C 
BRANCH  14  15
ATOM     15  CG  GLN A 189      -9.854  10.633  73.294  1.00 45.60     0.105 C 
BRANCH  15  16
ATOM     16  CD  GLN A 189      -8.597   9.786  73.309  1.00 47.27     0.215 C 
ATOM     17  NE2 GLN A 189      -8.589   8.752  74.143  1.00 44.45    -0.370 N 
ATOM     18 2HE2 GLN A 189      -9.379   8.526  74.747  1.00  0.00     0.159 HD
ATOM     19 1HE2 GLN A 189      -7.743   8.182  74.154  1.00  0.00     0.159 HD
ATOM     20  OE1 GLN A 189      -7.643  10.059  72.580  1.00 41.09    -0.274 OA
ENDBRANCH  15  16
ENDBRANCH  14  15
ENDBRANCH  13  14
END_RES GLN A 189
BEGIN_RES ASN A 142
REMARK  2 active torsions:
REMARK  status: ('A' for Active; 'I' for Inactive)
REMARK    7  A    between atoms: CA   and  CB  
REMARK    8  A    between atoms: CB   and  CG  
REMARK       I    between atoms: CG   and  ND2 
ROOT
ATOM     21  CA  ASN A 142      -7.978  15.712  62.559  1.00 43.18     0.185 C 
ENDROOT
BRANCH  21  22
ATOM     22  CB  ASN A 142      -6.512  15.609  62.983  1.00 38.76     0.137 C 
BRANCH  22  23
ATOM     23  CG  ASN A 142      -6.347  15.397  64.476  1.00 50.71     0.217 C 
ATOM     24  ND2 ASN A 142      -6.419  14.144  64.907  1.00 55.08    -0.370 N 
ATOM     25 2HD2 ASN A 142      -6.577  13.355  64.279  1.00  0.00     0.159 HD
ATOM     26 1HD2 ASN A 142      -6.308  14.001  65.911  1.00  0.00     0.159 HD
ATOM     27  OD1 ASN A 142      -6.157  16.349  65.233  1.00 51.97    -0.274 OA
ENDBRANCH  22  23
ENDBRANCH  21  22
END_RES ASN A 142
BEGIN_RES LEU A  27
REMARK  2 active torsions:
REMARK  status: ('A' for Active; 'I' for Inactive)
REMARK    9  A    between atoms: CA   and  CB  
REMARK   10  A    between atoms: CB   and  CG  
ROOT
ATOM     28  CA  LEU A  27     -11.471  23.771  64.549  1.00 37.04     0.177 C 
ENDROOT
BRANCH  28  29
ATOM     29  CB  LEU A  27     -12.225  22.902  65.570  1.00 37.70     0.038 C 
BRANCH  29  30
ATOM     30  CG  LEU A  27     -12.614  23.438  66.948  1.00 36.32    -0.020 C 
ATOM     31  CD1 LEU A  27     -13.714  24.482  66.852  1.00 32.79     0.009 C 
ATOM     32  CD2 LEU A  27     -13.056  22.281  67.831  1.00 31.17     0.009 C 
ENDBRANCH  29  30
ENDBRANCH  28  29
END_RES LEU A  27
BEGIN_RES MET A  49
REMARK  3 active torsions:
REMARK  status: ('A' for Active; 'I' for Inactive)
REMARK   11  A    between atoms: CA   and  CB  
REMARK   12  A    between atoms: CB   and  CG  
REMARK   13  A    between atoms: CG   and  SD  
ROOT
ATOM     33  CA  MET A  49      -9.418  15.600  76.823  1.00 61.58     0.177 C 
ENDROOT
BRANCH  33  34
ATOM     34  CB  MET A  49      -8.930  15.410  75.386  1.00 62.15     0.045 C 
BRANCH  34  35
ATOM     35  CG  MET A  49      -9.963  15.789  74.337  1.00 60.24     0.076 C 
BRANCH  35  36
ATOM     36  SD  MET A  49     -11.353  16.721  75.008  1.00 77.15    -0.173 SA
ATOM     37  CE  MET A  49     -12.696  16.091  74.002  1.00 60.34     0.089 C 
ENDBRANCH  35  36
ENDBRANCH  34  35
ENDBRANCH  33  34
END_RES MET A  49
BEGIN_RES GLU A 166
REMARK  3 active torsions:
REMARK  status: ('A' for Active; 'I' for Inactive)
REMARK   14  A    between atoms: CA   and  CB  
REMARK   15  A    between atoms: CB   and  CG  
REMARK   16  A    between atoms: CG   and  CD  
ROOT
ATOM     38  CA  GLU A 166     -14.746   9.219  66.167  1.00 28.52     0.177 C 
ENDROOT
BRANCH  38  39
ATOM     39  CB  GLU A 166     -13.578   9.064  65.189  1.00 29.90     0.045 C 
BRANCH  39  40
ATOM     40  CG  GLU A 166     -12.392   9.976  65.438  1.00 36.08     0.116 C 
BRANCH  40  41
ATOM     41  CD  GLU A 166     -12.298  11.080  64.402  1.00 45.17     0.172 C 
ATOM     42  OE2 GLU A 166     -11.200  11.275  63.837  1.00 40.54    -0.648 OA
ATOM     43  OE1 GLU A 166     -13.323  11.748  64.143  1.00 50.70    -0.648 OA
ENDBRANCH  40  41
ENDBRANCH  39  40
ENDBRANCH  38  39
END_RES GLU A 166
BEGIN_RES HIS A 163
REMARK  2 active torsions:
REMARK  status: ('A' for Active; 'I' for Inactive)
REMARK   17  A    between atoms: CA   and  CB  
REMARK   18  A    between atoms: CB   and  CG  
ROOT
ATOM     44  CA  HIS A 163     -19.055  16.637  64.100  1.00 27.27     0.182 C 
ENDROOT
BRANCH  44  45
ATOM     45  CB  HIS A 163     -18.129  16.377  62.914  1.00 26.00     0.093 C 
BRANCH  45  46
ATOM     46  CG  HIS A 163     -17.089  15.336  63.186  1.00 26.66     0.028 A 
ATOM     47  ND1 HIS A 163     -15.745  15.630  63.255  1.00 26.97    -0.354 N 
ATOM     48  CE1 HIS A 163     -15.066  14.524  63.500  1.00 30.44     0.180 A 
ATOM     49  HD1 HIS A 163     -15.337  16.558  63.135  1.00  0.00     0.166 HD
ATOM     50  NE2 HIS A 163     -15.923  13.521  63.588  1.00 30.00    -0.360 N 
ATOM     51  CD2 HIS A 163     -17.195  14.003  63.395  1.00 29.24     0.114 A 
ATOM     52  HE2 HIS A 163     -15.679  12.548  63.769  1.00  0.00     0.166 HD
ENDBRANCH  45  46
ENDBRANCH  44  45
END_RES HIS A 163
BEGIN_RES HIS A 172
REMARK  2 active torsions:
REMARK  status: ('A' for Active; 'I' for Inactive)
REMARK   19  A    between atoms: CA   and  CB  
REMARK   20  A    between atoms: CB   and  CG  
ROOT
ATOM     53  CA  HIS A 172     -18.444   9.111  64.049  1.00 29.85     0.182 C 
ENDROOT
BRANCH  53  54
ATOM     54  CB  HIS A 172     -18.188  10.085  62.898  1.00 26.76     0.093 C 
BRANCH  54  55
ATOM     55  CG  HIS A 172     -16.928   9.799  62.142  1.00 28.76     0.028 A 
ATOM     56  CD2 HIS A 172     -16.719   9.151  60.972  1.00 29.36     0.114 A 
ATOM     57  NE2 HIS A 172     -15.367   9.182  60.727  1.00 33.77    -0.360 N 
ATOM     58  CE1 HIS A 172     -14.768   9.832  61.710  1.00 32.44     0.180 A 
ATOM     59  HE2 HIS A 172     -14.902   8.771  59.918  1.00  0.00     0.166 HD
ATOM     60  ND1 HIS A 172     -15.689  10.218  62.576  1.00 29.32    -0.354 N 
ATOM     61  HD1 HIS A 172     -15.510  10.744  63.432  1.00  0.00     0.166 HD
ENDBRANCH  54  55
ENDBRANCH  53  54
END_RES HIS A 172
BEGIN_RES THR A  26
REMARK  2 active torsions:
REMARK  status: ('A' for Active; 'I' for Inactive)
REMARK   21  A    between atoms: CA   and  CB  
REMARK   22  A    between atoms: CB   and  OG1 
ROOT
ATOM     62  CA  THR A  26      -8.224  25.031  66.060  1.00 43.98     0.205 C 
ENDROOT
BRANCH  62  63
ATOM     63  CB  THR A  26      -7.184  25.490  65.034  1.00 45.90     0.146 C 
ATOM     64  CG2 THR A  26      -7.852  26.108  63.804  1.00 47.20     0.042 C 
BRANCH  63  65
ATOM     65  OG1 THR A  26      -6.300  26.443  65.633  1.00 50.51    -0.393 OA
ATOM     66  HG1 THR A  26      -6.478  26.508  66.564  1.00  0.00     0.210 HD
ENDBRANCH  63  65
ENDBRANCH  62  63
END_RES THR A  26
ENDMDL
MODEL 5
REMARK VINA RESULT:      -7.6      2.420      6.126
REMARK  11 active torsions:
REMARK  status: ('A' for Active; 'I' for Inactive)
REMARK    1  A    between atoms: N1_7  and  C6_8 
REMARK    2  A    between atoms: C10_12  and  C11_13 
REMARK    3  A    between atoms: C11_13  and  C12_14 
REMARK    4  A    between atoms: C11_13  and  C18_23 
REMARK    5  A    between atoms: C12_14  and  C13_15 
REMARK    6  A    between atoms: C18_23  and  C19_24 
REMARK    7  A    between atoms: C18_23  and  N4_31 
REMARK    8  A    between atoms: C19_24  and  C20_25 
REMARK    9  A    between atoms: N4_31  and  C26_32 
REMARK   10  A    between atoms: C26_32  and  C27_34 
REMARK   11  A    between atoms: N6_37  and  C29_38 
ROOT
HETATM    1  C1  UNL     1     -13.177   9.830  71.703  1.00  0.00     0.040 C 
HETATM    2  C2  UNL     1     -12.547  10.695  70.689  1.00  0.00     0.026 C 
HETATM    3  C3  UNL     1     -11.592  10.215  69.928  1.00  0.00     0.149 A 
HETATM    4  O1  UNL     1     -11.071   8.921  69.959  1.00  0.00    -0.304 OA
HETATM    5  C4  UNL     1     -10.091   8.866  68.987  1.00  0.00     0.162 A 
HETATM    6  C5  UNL     1      -9.965  10.019  68.360  1.00  0.00     0.124 A 
HETATM    7  N1  UNL     1     -10.901  10.928  68.916  1.00  0.00    -0.301 N 
ENDROOT
BRANCH   7   8
HETATM    8  C6  UNL     1     -11.043  12.279  68.476  1.00  0.00     0.041 A 
HETATM    9  C7  UNL     1     -11.824  12.586  67.382  1.00  0.00     0.030 A 
HETATM   10  C8  UNL     1     -11.970  13.884  66.949  1.00  0.00     0.003 A 
HETATM   11  C9  UNL     1     -11.321  14.889  67.624  1.00  0.00     0.007 A 
HETATM   12  C10 UNL     1     -10.515  14.660  68.735  1.00  0.00    -0.050 A 
HETATM   13  C33 UNL     1     -10.426  13.308  69.105  1.00  0.00     0.037 A 
BRANCH  12  14
HETATM   14  C11 UNL     1      -9.811  15.728  69.444  1.00  0.00     0.043 C 
BRANCH  14  15
HETATM   15  C12 UNL     1      -8.647  15.411  70.288  1.00  0.00     0.036 C 
BRANCH  15  16
HETATM   16  C13 UNL     1      -7.312  15.943  70.021  1.00  0.00     0.088 C 
HETATM   17  C14 UNL     1      -6.963  15.428  68.571  1.00  0.00     0.045 C 
HETATM   18  C15 UNL     1      -5.815  16.275  68.120  1.00  0.00     0.129 C 
HETATM   19  N2  UNL     1      -4.733  16.196  69.060  1.00  0.00    -0.339 N 
HETATM   20  C16 UNL     1      -3.414  16.643  68.621  1.00  0.00     0.154 C 
HETATM   21  C17 UNL     1      -4.926  15.697  70.390  1.00  0.00     0.318 C 
HETATM   22  O2  UNL     1      -3.961  15.653  71.177  1.00  0.00    -0.247 OA
HETATM   23  N3  UNL     1      -6.222  15.267  70.767  1.00  0.00    -0.338 N 
HETATM   24  H21 UNL     1      -6.338  14.540  71.467  1.00  0.00     0.164 HD
ENDBRANCH  15  16
ENDBRANCH  14  15
BRANCH  14  25
HETATM   25  C18 UNL     1     -10.680  16.870  69.922  1.00  0.00     0.097 C 
BRANCH  25  26
HETATM   26  C19 UNL     1     -11.036  16.891  71.361  1.00  0.00     0.064 C 
BRANCH  26  27
HETATM   27  C20 UNL     1     -12.005  15.764  71.678  1.00  0.00    -0.056 A 
HETATM   28  C21 UNL     1     -13.271  15.739  71.132  1.00  0.00     0.007 A 
HETATM   29  C22 UNL     1     -14.153  14.698  71.431  1.00  0.00     0.001 A 
HETATM   30  C23 UNL     1     -13.768  13.672  72.281  1.00  0.00     0.000 A 
HETATM   31  C24 UNL     1     -12.517  13.695  72.821  1.00  0.00     0.001 A 
HETATM   32  C25 UNL     1     -11.653  14.732  72.519  1.00  0.00     0.007 A 
ENDBRANCH  26  27
ENDBRANCH  25  26
BRANCH  25  33
HETATM   33  N4  UNL     1     -10.045  18.157  69.646  1.00  0.00    -0.351 N 
HETATM   34  H30 UNL     1      -9.487  18.564  70.425  1.00  0.00     0.163 HD
BRANCH  33  35
HETATM   35  C26 UNL     1     -10.169  18.837  68.415  1.00  0.00     0.254 C 
HETATM   36  O3  UNL     1     -11.195  19.526  68.206  1.00  0.00    -0.268 OA
BRANCH  35  37
HETATM   37  C27 UNL     1      -9.108  18.720  67.427  1.00  0.00     0.068 A 
HETATM   38  C28 UNL     1      -8.991  17.758  66.446  1.00  0.00     0.157 A 
HETATM   39  N5  UNL     1      -7.890  17.997  65.751  1.00  0.00    -0.184 NA
HETATM   40  N6  UNL     1      -7.279  19.059  66.217  1.00  0.00    -0.276 N 
HETATM   41  C32 UNL     1      -8.000  19.525  67.243  1.00  0.00     0.131 A 
BRANCH  40  42
HETATM   42  C29 UNL     1      -6.031  19.577  65.650  1.00  0.00     0.101 C 
HETATM   43  C30 UNL     1      -5.177  18.424  65.166  1.00  0.00     0.034 C 
HETATM   44  C31 UNL     1      -6.381  20.477  64.490  1.00  0.00     0.034 C 
ENDBRANCH  40  42
ENDBRANCH  35  37
ENDBRANCH  33  35
ENDBRANCH  25  33
ENDBRANCH  14  25
ENDBRANCH  12  14
ENDBRANCH   7   8
TORSDOF 10
BEGIN_RES HIS A  41
REMARK  2 active torsions:
REMARK  status: ('A' for Active; 'I' for Inactive)
REMARK    1  A    between atoms: CA   and  CB  
REMARK    2  A    between atoms: CB   and  CG  
ROOT
ATOM      1  CA  HIS A  41     -13.820  21.037  73.265  1.00 38.89     0.182 C 
ENDROOT
BRANCH   1   2
ATOM      2  CB  HIS A  41     -13.705  19.545  72.937  1.00 42.38     0.093 C 
BRANCH   2   3
ATOM      3  CG  HIS A  41     -14.233  19.176  71.586  1.00 37.90     0.028 A 
ATOM      4  CD2 HIS A  41     -15.411  18.627  71.207  1.00 37.33     0.114 A 
ATOM      5  NE2 HIS A  41     -15.379  18.506  69.839  1.00 41.88    -0.360 N 
ATOM      6  CE1 HIS A  41     -14.225  18.970  69.394  1.00 41.55     0.180 A 
ATOM      7  HE2 HIS A  41     -16.126  18.120  69.261  1.00  0.00     0.166 HD
ATOM      8  ND1 HIS A  41     -13.515  19.383  70.428  1.00 36.57    -0.354 N 
ATOM      9  HD1 HIS A  41     -12.582  19.792  70.377  1.00  0.00     0.166 HD
ENDBRANCH   2   3
ENDBRANCH   1   2
END_RES HIS A  41
BEGIN_RES CYS A 145
REMARK  1 active torsions:
REMARK  status: ('A' for Active; 'I' for Inactive)
REMARK    3  A    between atoms: CA   and  CB  
ROOT
ATOM     10  CA  CYS A 145     -14.607  19.162  64.101  1.00 29.71     0.186 C 
ENDROOT
BRANCH  10  11
ATOM     11  CB  CYS A 145     -14.100  19.110  65.541  1.00 31.75     0.120 C 
ATOM     12  SG  CYS A 145     -13.531  17.477  66.049  1.00 39.68    -0.095 SA
ENDBRANCH  10  11
END_RES CYS A 145
BEGIN_RES GLN A 189
REMARK  3 active torsions:
REMARK  status: ('A' for Active; 'I' for Inactive)
REMARK    4  A    between atoms: CA   and  CB  
REMARK    5  A    between atoms: CB   and  CG  
REMARK    6  A    between atoms: CG   and  CD  
REMARK       I    between atoms: CD   and  NE2 
ROOT
ATOM     13  CA  GLN A 189     -11.641  10.633  75.105  1.00 38.41     0.177 C 
ENDROOT
BRANCH  13  14
ATOM     14  CB  GLN A 189     -10.259  11.109  74.679  1.00 37.59     0.044 C 
BRANCH  14  15
ATOM     15  CG  GLN A 189      -9.902  10.735  73.249  1.00 45.60     0.105 C 
BRANCH  15  16
ATOM     16  CD  GLN A 189      -9.207   9.392  73.151  1.00 47.27     0.215 C 
ATOM     17  NE2 GLN A 189      -9.916   8.395  72.634  1.00 44.45    -0.370 N 
ATOM     18 2HE2 GLN A 189     -10.879   8.510  72.316  1.00  0.00     0.159 HD
ATOM     19 1HE2 GLN A 189      -9.449   7.490  72.568  1.00  0.00     0.159 HD
ATOM     20  OE1 GLN A 189      -8.046   9.253  73.534  1.00 41.09    -0.274 OA
ENDBRANCH  15  16
ENDBRANCH  14  15
ENDBRANCH  13  14
END_RES GLN A 189
BEGIN_RES ASN A 142
REMARK  2 active torsions:
REMARK  status: ('A' for Active; 'I' for Inactive)
REMARK    7  A    between atoms: CA   and  CB  
REMARK    8  A    between atoms: CB   and  CG  
REMARK       I    between atoms: CG   and  ND2 
ROOT
ATOM     21  CA  ASN A 142      -7.978  15.712  62.559  1.00 43.18     0.185 C 
ENDROOT
BRANCH  21  22
ATOM     22  CB  ASN A 142      -6.512  15.609  62.983  1.00 38.76     0.137 C 
BRANCH  22  23
ATOM     23  CG  ASN A 142      -6.344  15.028  64.374  1.00 50.71     0.217 C 
ATOM     24  ND2 ASN A 142      -7.458  14.816  65.065  1.00 55.08    -0.370 N 
ATOM     25 2HD2 ASN A 142      -8.384  15.029  64.693  1.00  0.00     0.159 HD
ATOM     26 1HD2 ASN A 142      -7.345  14.426  66.001  1.00  0.00     0.159 HD
ATOM     27  OD1 ASN A 142      -5.227  14.772  64.823  1.00 51.97    -0.274 OA
ENDBRANCH  22  23
ENDBRANCH  21  22
END_RES ASN A 142
BEGIN_RES LEU A  27
REMARK  2 active torsions:
REMARK  status: ('A' for Active; 'I' for Inactive)
REMARK    9  A    between atoms: CA   and  CB  
REMARK   10  A    between atoms: CB   and  CG  
ROOT
ATOM     28  CA  LEU A  27     -11.471  23.771  64.549  1.00 37.04     0.177 C 
ENDROOT
BRANCH  28  29
ATOM     29  CB  LEU A  27     -12.225  22.902  65.570  1.00 37.70     0.038 C 
BRANCH  29  30
ATOM     30  CG  LEU A  27     -12.609  23.436  66.950  1.00 36.32    -0.020 C 
ATOM     31  CD1 LEU A  27     -13.692  24.498  66.857  1.00 32.79     0.009 C 
ATOM     32  CD2 LEU A  27     -13.072  22.281  67.826  1.00 31.17     0.009 C 
ENDBRANCH  29  30
ENDBRANCH  28  29
END_RES LEU A  27
BEGIN_RES MET A  49
REMARK  3 active torsions:
REMARK  status: ('A' for Active; 'I' for Inactive)
REMARK   11  A    between atoms: CA   and  CB  
REMARK   12  A    between atoms: CB   and  CG  
REMARK   13  A    between atoms: CG   and  SD  
ROOT
ATOM     33  CA  MET A  49      -9.418  15.600  76.823  1.00 61.58     0.177 C 
ENDROOT
BRANCH  33  34
ATOM     34  CB  MET A  49      -8.930  15.410  75.386  1.00 62.15     0.045 C 
BRANCH  34  35
ATOM     35  CG  MET A  49      -9.284  16.566  74.465  1.00 60.24     0.076 C 
BRANCH  35  36
ATOM     36  SD  MET A  49      -7.906  17.105  73.434  1.00 77.15    -0.173 SA
ATOM     37  CE  MET A  49      -8.446  18.754  72.987  1.00 60.34     0.089 C 
ENDBRANCH  35  36
ENDBRANCH  34  35
ENDBRANCH  33  34
END_RES MET A  49
BEGIN_RES GLU A 166
REMARK  3 active torsions:
REMARK  status: ('A' for Active; 'I' for Inactive)
REMARK   14  A    between atoms: CA   and  CB  
REMARK   15  A    between atoms: CB   and  CG  
REMARK   16  A    between atoms: CG   and  CD  
ROOT
ATOM     38  CA  GLU A 166     -14.746   9.219  66.167  1.00 28.52     0.177 C 
ENDROOT
BRANCH  38  39
ATOM     39  CB  GLU A 166     -13.578   9.064  65.189  1.00 29.90     0.045 C 
BRANCH  39  40
ATOM     40  CG  GLU A 166     -12.445  10.057  65.362  1.00 36.08     0.116 C 
BRANCH  40  41
ATOM     41  CD  GLU A 166     -12.406  11.075  64.237  1.00 45.17     0.172 C 
ATOM     42  OE2 GLU A 166     -11.405  11.098  63.490  1.00 40.54    -0.648 OA
ATOM     43  OE1 GLU A 166     -13.380  11.845  64.092  1.00 50.70    -0.648 OA
ENDBRANCH  40  41
ENDBRANCH  39  40
ENDBRANCH  38  39
END_RES GLU A 166
BEGIN_RES HIS A 163
REMARK  2 active torsions:
REMARK  status: ('A' for Active; 'I' for Inactive)
REMARK   17  A    between atoms: CA   and  CB  
REMARK   18  A    between atoms: CB   and  CG  
ROOT
ATOM     44  CA  HIS A 163     -19.055  16.637  64.100  1.00 27.27     0.182 C 
ENDROOT
BRANCH  44  45
ATOM     45  CB  HIS A 163     -18.129  16.377  62.914  1.00 26.00     0.093 C 
BRANCH  45  46
ATOM     46  CG  HIS A 163     -17.087  15.339  63.188  1.00 26.66     0.028 A 
ATOM     47  ND1 HIS A 163     -15.745  15.639  63.270  1.00 26.97    -0.354 N 
ATOM     48  CE1 HIS A 163     -15.063  14.533  63.513  1.00 30.44     0.180 A 
ATOM     49  HD1 HIS A 163     -15.340  16.569  63.161  1.00  0.00     0.166 HD
ATOM     50  NE2 HIS A 163     -15.916  13.527  63.585  1.00 30.00    -0.360 N 
ATOM     51  CD2 HIS A 163     -17.188  14.003  63.385  1.00 29.24     0.114 A 
ATOM     52  HE2 HIS A 163     -15.668  12.553  63.762  1.00  0.00     0.166 HD
ENDBRANCH  45  46
ENDBRANCH  44  45
END_RES HIS A 163
BEGIN_RES HIS A 172
REMARK  2 active torsions:
REMARK  status: ('A' for Active; 'I' for Inactive)
REMARK   19  A    between atoms: CA   and  CB  
REMARK   20  A    between atoms: CB   and  CG  
ROOT
ATOM     53  CA  HIS A 172     -18.444   9.111  64.049  1.00 29.85     0.182 C 
ENDROOT
BRANCH  53  54
ATOM     54  CB  HIS A 172     -18.188  10.085  62.898  1.00 26.76     0.093 C 
BRANCH  54  55
ATOM     55  CG  HIS A 172     -16.933   9.793  62.137  1.00 28.76     0.028 A 
ATOM     56  CD2 HIS A 172     -16.733   9.166  60.954  1.00 29.36     0.114 A 
ATOM     57  NE2 HIS A 172     -15.381   9.181  60.710  1.00 33.77    -0.360 N 
ATOM     58  CE1 HIS A 172     -14.772   9.800  61.706  1.00 32.44     0.180 A 
ATOM     59  HE2 HIS A 172     -14.923   8.778  59.892  1.00  0.00     0.166 HD
ATOM     60  ND1 HIS A 172     -15.686  10.183  62.579  1.00 29.32    -0.354 N 
ATOM     61  HD1 HIS A 172     -15.500  10.689  63.446  1.00  0.00     0.166 HD
ENDBRANCH  54  55
ENDBRANCH  53  54
END_RES HIS A 172
BEGIN_RES THR A  26
REMARK  2 active torsions:
REMARK  status: ('A' for Active; 'I' for Inactive)
REMARK   21  A    between atoms: CA   and  CB  
REMARK   22  A    between atoms: CB   and  OG1 
ROOT
ATOM     62  CA  THR A  26      -8.224  25.031  66.060  1.00 43.98     0.205 C 
ENDROOT
BRANCH  62  63
ATOM     63  CB  THR A  26      -7.184  25.490  65.034  1.00 45.90     0.146 C 
ATOM     64  CG2 THR A  26      -7.853  26.037  63.772  1.00 47.20     0.042 C 
BRANCH  63  65
ATOM     65  OG1 THR A  26      -6.345  26.497  65.610  1.00 50.51    -0.393 OA
ATOM     66  HG1 THR A  26      -6.357  27.276  65.067  1.00  0.00     0.210 HD
ENDBRANCH  63  65
ENDBRANCH  62  63
END_RES THR A  26
ENDMDL
MODEL 6
REMARK VINA RESULT:      -7.6      2.058      3.874
REMARK  11 active torsions:
REMARK  status: ('A' for Active; 'I' for Inactive)
REMARK    1  A    between atoms: N1_7  and  C6_8 
REMARK    2  A    between atoms: C10_12  and  C11_13 
REMARK    3  A    between atoms: C11_13  and  C12_14 
REMARK    4  A    between atoms: C11_13  and  C18_23 
REMARK    5  A    between atoms: C12_14  and  C13_15 
REMARK    6  A    between atoms: C18_23  and  C19_24 
REMARK    7  A    between atoms: C18_23  and  N4_31 
REMARK    8  A    between atoms: C19_24  and  C20_25 
REMARK    9  A    between atoms: N4_31  and  C26_32 
REMARK   10  A    between atoms: C26_32  and  C27_34 
REMARK   11  A    between atoms: N6_37  and  C29_38 
ROOT
HETATM    1  C1  UNL     1      -6.265  19.644  71.665  1.00  0.00     0.040 C 
HETATM    2  C2  UNL     1      -6.501  18.196  71.508  1.00  0.00     0.026 C 
HETATM    3  C3  UNL     1      -5.568  17.438  70.983  1.00  0.00     0.149 A 
HETATM    4  O1  UNL     1      -4.314  17.851  70.529  1.00  0.00    -0.304 OA
HETATM    5  C4  UNL     1      -3.671  16.722  70.061  1.00  0.00     0.162 A 
HETATM    6  C5  UNL     1      -4.425  15.647  70.188  1.00  0.00     0.124 A 
HETATM    7  N1  UNL     1      -5.656  16.039  70.774  1.00  0.00    -0.301 N 
ENDROOT
BRANCH   7   8
HETATM    8  C6  UNL     1      -6.718  15.128  71.059  1.00  0.00     0.041 A 
HETATM    9  C7  UNL     1      -6.671  14.315  72.172  1.00  0.00     0.030 A 
HETATM   10  C8  UNL     1      -7.688  13.434  72.457  1.00  0.00     0.003 A 
HETATM   11  C9  UNL     1      -8.769  13.367  71.612  1.00  0.00     0.007 A 
HETATM   12  C10 UNL     1      -8.890  14.151  70.469  1.00  0.00    -0.050 A 
HETATM   13  C33 UNL     1      -7.806  15.020  70.258  1.00  0.00     0.037 A 
BRANCH  12  14
HETATM   14  C11 UNL     1     -10.032  14.067  69.560  1.00  0.00     0.043 C 
BRANCH  14  15
HETATM   15  C12 UNL     1      -9.842  14.276  68.115  1.00  0.00     0.036 C 
BRANCH  15  16
HETATM   16  C13 UNL     1     -10.242  13.285  67.117  1.00  0.00     0.088 C 
HETATM   17  C14 UNL     1      -9.235  13.497  65.921  1.00  0.00     0.045 C 
HETATM   18  C15 UNL     1      -9.352  12.261  65.087  1.00  0.00     0.129 C 
HETATM   19  N2  UNL     1     -10.714  12.050  64.690  1.00  0.00    -0.339 N 
HETATM   20  C16 UNL     1     -10.969  11.127  63.587  1.00  0.00     0.154 C 
HETATM   21  C17 UNL     1     -11.802  12.715  65.346  1.00  0.00     0.318 C 
HETATM   22  O2  UNL     1     -12.971  12.497  64.976  1.00  0.00    -0.247 OA
HETATM   23  N3  UNL     1     -11.504  13.607  66.406  1.00  0.00    -0.338 N 
HETATM   24  H21 UNL     1     -12.116  14.395  66.600  1.00  0.00     0.164 HD
ENDBRANCH  15  16
ENDBRANCH  14  15
BRANCH  14  25
HETATM   25  C18 UNL     1     -11.347  14.551  70.128  1.00  0.00     0.097 C 
BRANCH  25  26
HETATM   26  C19 UNL     1     -11.979  15.718  69.468  1.00  0.00     0.064 C 
BRANCH  26  27
HETATM   27  C20 UNL     1     -11.199  16.984  69.782  1.00  0.00    -0.056 A 
HETATM   28  C21 UNL     1     -10.777  17.827  68.775  1.00  0.00     0.007 A 
HETATM   29  C22 UNL     1     -10.062  18.989  69.076  1.00  0.00     0.001 A 
HETATM   30  C23 UNL     1      -9.766  19.313  70.392  1.00  0.00     0.000 A 
HETATM   31  C24 UNL     1     -10.184  18.480  71.387  1.00  0.00     0.001 A 
HETATM   32  C25 UNL     1     -10.891  17.333  71.078  1.00  0.00     0.007 A 
ENDBRANCH  26  27
ENDBRANCH  25  26
BRANCH  25  33
HETATM   33  N4  UNL     1     -12.347  13.485  70.103  1.00  0.00    -0.351 N 
HETATM   34  H30 UNL     1     -12.888  13.392  69.219  1.00  0.00     0.163 HD
BRANCH  33  35
HETATM   35  C26 UNL     1     -12.595  12.625  71.196  1.00  0.00     0.254 C 
HETATM   36  O3  UNL     1     -13.028  13.117  72.264  1.00  0.00    -0.268 OA
BRANCH  35  37
HETATM   37  C27 UNL     1     -12.342  11.200  71.052  1.00  0.00     0.068 A 
HETATM   38  C28 UNL     1     -11.412  10.602  70.229  1.00  0.00     0.157 A 
HETATM   39  N5  UNL     1     -11.492   9.290  70.387  1.00  0.00    -0.184 NA
HETATM   40  N6  UNL     1     -12.418   8.993  71.267  1.00  0.00    -0.276 N 
HETATM   41  C32 UNL     1     -12.957  10.141  71.693  1.00  0.00     0.131 A 
BRANCH  40  42
HETATM   42  C29 UNL     1     -12.738   7.617  71.657  1.00  0.00     0.101 C 
HETATM   43  C30 UNL     1     -14.227   7.386  71.525  1.00  0.00     0.034 C 
HETATM   44  C31 UNL     1     -11.990   6.684  70.736  1.00  0.00     0.034 C 
ENDBRANCH  40  42
ENDBRANCH  35  37
ENDBRANCH  33  35
ENDBRANCH  25  33
ENDBRANCH  14  25
ENDBRANCH  12  14
ENDBRANCH   7   8
TORSDOF 10
BEGIN_RES HIS A  41
REMARK  2 active torsions:
REMARK  status: ('A' for Active; 'I' for Inactive)
REMARK    1  A    between atoms: CA   and  CB  
REMARK    2  A    between atoms: CB   and  CG  
ROOT
ATOM      1  CA  HIS A  41     -13.820  21.037  73.265  1.00 38.89     0.182 C 
ENDROOT
BRANCH   1   2
ATOM      2  CB  HIS A  41     -13.705  19.545  72.937  1.00 42.38     0.093 C 
BRANCH   2   3
ATOM      3  CG  HIS A  41     -14.079  19.200  71.530  1.00 37.90     0.028 A 
ATOM      4  CD2 HIS A  41     -14.999  18.339  71.035  1.00 37.33     0.114 A 
ATOM      5  NE2 HIS A  41     -14.932  18.417  69.665  1.00 41.88    -0.360 N 
ATOM      6  CE1 HIS A  41     -14.008  19.301  69.331  1.00 41.55     0.180 A 
ATOM      7  HE2 HIS A  41     -15.503  17.881  69.012  1.00  0.00     0.166 HD
ATOM      8  ND1 HIS A  41     -13.479  19.790  70.438  1.00 36.57    -0.354 N 
ATOM      9  HD1 HIS A  41     -12.743  20.495  70.478  1.00  0.00     0.166 HD
ENDBRANCH   2   3
ENDBRANCH   1   2
END_RES HIS A  41
BEGIN_RES CYS A 145
REMARK  1 active torsions:
REMARK  status: ('A' for Active; 'I' for Inactive)
REMARK    3  A    between atoms: CA   and  CB  
ROOT
ATOM     10  CA  CYS A 145     -14.607  19.162  64.101  1.00 29.71     0.186 C 
ENDROOT
BRANCH  10  11
ATOM     11  CB  CYS A 145     -14.100  19.110  65.541  1.00 31.75     0.120 C 
ATOM     12  SG  CYS A 145     -13.533  17.477  66.050  1.00 39.68    -0.095 SA
ENDBRANCH  10  11
END_RES CYS A 145
BEGIN_RES GLN A 189
REMARK  3 active torsions:
REMARK  status: ('A' for Active; 'I' for Inactive)
REMARK    4  A    between atoms: CA   and  CB  
REMARK    5  A    between atoms: CB   and  CG  
REMARK    6  A    between atoms: CG   and  CD  
REMARK       I    between atoms: CD   and  NE2 
ROOT
ATOM     13  CA  GLN A 189     -11.641  10.633  75.105  1.00 38.41     0.177 C 
ENDROOT
BRANCH  13  14
ATOM     14  CB  GLN A 189     -10.259  11.109  74.679  1.00 37.59     0.044 C 
BRANCH  14  15
ATOM     15  CG  GLN A 189      -9.695  10.348  73.491  1.00 45.60     0.105 C 
BRANCH  15  16
ATOM     16  CD  GLN A 189      -8.308   9.795  73.753  1.00 47.27     0.215 C 
ATOM     17  NE2 GLN A 189      -7.912   9.765  75.021  1.00 44.45    -0.370 N 
ATOM     18 2HE2 GLN A 189      -8.499  10.093  75.789  1.00  0.00     0.159 HD
ATOM     19 1HE2 GLN A 189      -6.979   9.394  75.198  1.00  0.00     0.159 HD
ATOM     20  OE1 GLN A 189      -7.601   9.400  72.826  1.00 41.09    -0.274 OA
ENDBRANCH  15  16
ENDBRANCH  14  15
ENDBRANCH  13  14
END_RES GLN A 189
BEGIN_RES ASN A 142
REMARK  2 active torsions:
REMARK  status: ('A' for Active; 'I' for Inactive)
REMARK    7  A    between atoms: CA   and  CB  
REMARK    8  A    between atoms: CB   and  CG  
REMARK       I    between atoms: CG   and  ND2 
ROOT
ATOM     21  CA  ASN A 142      -7.978  15.712  62.559  1.00 43.18     0.185 C 
ENDROOT
BRANCH  21  22
ATOM     22  CB  ASN A 142      -6.512  15.609  62.983  1.00 38.76     0.137 C 
BRANCH  22  23
ATOM     23  CG  ASN A 142      -6.283  16.059  64.413  1.00 50.71     0.217 C 
ATOM     24  ND2 ASN A 142      -5.019  16.228  64.785  1.00 55.08    -0.370 N 
ATOM     25 2HD2 ASN A 142      -4.234  16.066  64.153  1.00  0.00     0.159 HD
ATOM     26 1HD2 ASN A 142      -4.865  16.531  65.747  1.00  0.00     0.159 HD
ATOM     27  OD1 ASN A 142      -7.229  16.255  65.175  1.00 51.97    -0.274 OA
ENDBRANCH  22  23
ENDBRANCH  21  22
END_RES ASN A 142
BEGIN_RES LEU A  27
REMARK  2 active torsions:
REMARK  status: ('A' for Active; 'I' for Inactive)
REMARK    9  A    between atoms: CA   and  CB  
REMARK   10  A    between atoms: CB   and  CG  
ROOT
ATOM     28  CA  LEU A  27     -11.471  23.771  64.549  1.00 37.04     0.177 C 
ENDROOT
BRANCH  28  29
ATOM     29  CB  LEU A  27     -12.225  22.902  65.570  1.00 37.70     0.038 C 
BRANCH  29  30
ATOM     30  CG  LEU A  27     -12.499  23.390  66.993  1.00 36.32    -0.020 C 
ATOM     31  CD1 LEU A  27     -13.870  24.036  67.108  1.00 32.79     0.009 C 
ATOM     32  CD2 LEU A  27     -12.381  22.220  67.958  1.00 31.17     0.009 C 
ENDBRANCH  29  30
ENDBRANCH  28  29
END_RES LEU A  27
BEGIN_RES MET A  49
REMARK  3 active torsions:
REMARK  status: ('A' for Active; 'I' for Inactive)
REMARK   11  A    between atoms: CA   and  CB  
REMARK   12  A    between atoms: CB   and  CG  
REMARK   13  A    between atoms: CG   and  SD  
ROOT
ATOM     33  CA  MET A  49      -9.418  15.600  76.823  1.00 61.58     0.177 C 
ENDROOT
BRANCH  33  34
ATOM     34  CB  MET A  49      -8.930  15.410  75.386  1.00 62.15     0.045 C 
BRANCH  34  35
ATOM     35  CG  MET A  49      -9.634  16.307  74.380  1.00 60.24     0.076 C 
BRANCH  35  36
ATOM     36  SD  MET A  49     -11.185  16.990  74.996  1.00 77.15    -0.173 SA
ATOM     37  CE  MET A  49     -12.344  15.740  74.445  1.00 60.34     0.089 C 
ENDBRANCH  35  36
ENDBRANCH  34  35
ENDBRANCH  33  34
END_RES MET A  49
BEGIN_RES GLU A 166
REMARK  3 active torsions:
REMARK  status: ('A' for Active; 'I' for Inactive)
REMARK   14  A    between atoms: CA   and  CB  
REMARK   15  A    between atoms: CB   and  CG  
REMARK   16  A    between atoms: CG   and  CD  
ROOT
ATOM     38  CA  GLU A 166     -14.746   9.219  66.167  1.00 28.52     0.177 C 
ENDROOT
BRANCH  38  39
ATOM     39  CB  GLU A 166     -13.578   9.064  65.189  1.00 29.90     0.045 C 
BRANCH  39  40
ATOM     40  CG  GLU A 166     -13.608   7.816  64.327  1.00 36.08     0.116 C 
BRANCH  40  41
ATOM     41  CD  GLU A 166     -12.383   7.710  63.438  1.00 45.17     0.172 C 
ATOM     42  OE2 GLU A 166     -11.271   7.530  63.977  1.00 40.54    -0.648 OA
ATOM     43  OE1 GLU A 166     -12.532   7.797  62.200  1.00 50.70    -0.648 OA
ENDBRANCH  40  41
ENDBRANCH  39  40
ENDBRANCH  38  39
END_RES GLU A 166
BEGIN_RES HIS A 163
REMARK  2 active torsions:
REMARK  status: ('A' for Active; 'I' for Inactive)
REMARK   17  A    between atoms: CA   and  CB  
REMARK   18  A    between atoms: CB   and  CG  
ROOT
ATOM     44  CA  HIS A 163     -19.055  16.637  64.100  1.00 27.27     0.182 C 
ENDROOT
BRANCH  44  45
ATOM     45  CB  HIS A 163     -18.129  16.377  62.914  1.00 26.00     0.093 C 
BRANCH  45  46
ATOM     46  CG  HIS A 163     -17.068  15.361  63.197  1.00 26.66     0.028 A 
ATOM     47  ND1 HIS A 163     -15.734  15.689  63.297  1.00 26.97    -0.354 N 
ATOM     48  CE1 HIS A 163     -15.032  14.597  63.545  1.00 30.44     0.180 A 
ATOM     49  HD1 HIS A 163     -15.348  16.627  63.195  1.00  0.00     0.166 HD
ATOM     50  NE2 HIS A 163     -15.863  13.572  63.604  1.00 30.00    -0.360 N 
ATOM     51  CD2 HIS A 163     -17.143  14.023  63.390  1.00 29.24     0.114 A 
ATOM     52  HE2 HIS A 163     -15.598  12.604  63.781  1.00  0.00     0.166 HD
ENDBRANCH  45  46
ENDBRANCH  44  45
END_RES HIS A 163
BEGIN_RES HIS A 172
REMARK  2 active torsions:
REMARK  status: ('A' for Active; 'I' for Inactive)
REMARK   19  A    between atoms: CA   and  CB  
REMARK   20  A    between atoms: CB   and  CG  
ROOT
ATOM     53  CA  HIS A 172     -18.444   9.111  64.049  1.00 29.85     0.182 C 
ENDROOT
BRANCH  53  54
ATOM     54  CB  HIS A 172     -18.188  10.085  62.898  1.00 26.76     0.093 C 
BRANCH  54  55
ATOM     55  CG  HIS A 172     -16.878   9.864  62.208  1.00 28.76     0.028 A 
ATOM     56  CD2 HIS A 172     -15.619  10.222  62.551  1.00 29.36     0.114 A 
ATOM     57  NE2 HIS A 172     -14.782   9.757  61.566  1.00 33.77    -0.360 N 
ATOM     58  CE1 HIS A 172     -15.502   9.131  60.651  1.00 32.44     0.180 A 
ATOM     59  HE2 HIS A 172     -13.770   9.877  61.543  1.00  0.00     0.166 HD
ATOM     60  ND1 HIS A 172     -16.771   9.178  61.017  1.00 29.32    -0.354 N 
ATOM     61  HD1 HIS A 172     -17.550   8.770  60.499  1.00  0.00     0.166 HD
ENDBRANCH  54  55
ENDBRANCH  53  54
END_RES HIS A 172
BEGIN_RES THR A  26
REMARK  2 active torsions:
REMARK  status: ('A' for Active; 'I' for Inactive)
REMARK   21  A    between atoms: CA   and  CB  
REMARK   22  A    between atoms: CB   and  OG1 
ROOT
ATOM     62  CA  THR A  26      -8.224  25.031  66.060  1.00 43.98     0.205 C 
ENDROOT
BRANCH  62  63
ATOM     63  CB  THR A  26      -7.184  25.490  65.034  1.00 45.90     0.146 C 
ATOM     64  CG2 THR A  26      -7.781  26.500  64.052  1.00 47.20     0.042 C 
BRANCH  63  65
ATOM     65  OG1 THR A  26      -6.064  26.076  65.707  1.00 50.51    -0.393 OA
ATOM     66  HG1 THR A  26      -6.369  26.667  66.385  1.00  0.00     0.210 HD
ENDBRANCH  63  65
ENDBRANCH  62  63
END_RES THR A  26
ENDMDL
MODEL 7
REMARK VINA RESULT:      -7.6      1.993      4.868
REMARK  11 active torsions:
REMARK  status: ('A' for Active; 'I' for Inactive)
REMARK    1  A    between atoms: N1_7  and  C6_8 
REMARK    2  A    between atoms: C10_12  and  C11_13 
REMARK    3  A    between atoms: C11_13  and  C12_14 
REMARK    4  A    between atoms: C11_13  and  C18_23 
REMARK    5  A    between atoms: C12_14  and  C13_15 
REMARK    6  A    between atoms: C18_23  and  C19_24 
REMARK    7  A    between atoms: C18_23  and  N4_31 
REMARK    8  A    between atoms: C19_24  and  C20_25 
REMARK    9  A    between atoms: N4_31  and  C26_32 
REMARK   10  A    between atoms: C26_32  and  C27_34 
REMARK   11  A    between atoms: N6_37  and  C29_38 
ROOT
HETATM    1  C1  UNL     1      -2.474  15.179  69.691  1.00  0.00     0.040 C 
HETATM    2  C2  UNL     1      -3.684  15.889  70.148  1.00  0.00     0.026 C 
HETATM    3  C3  UNL     1      -4.350  15.437  71.183  1.00  0.00     0.149 A 
HETATM    4  O1  UNL     1      -4.043  14.310  71.947  1.00  0.00    -0.304 OA
HETATM    5  C4  UNL     1      -5.013  14.220  72.927  1.00  0.00     0.162 A 
HETATM    6  C5  UNL     1      -5.892  15.198  72.830  1.00  0.00     0.124 A 
HETATM    7  N1  UNL     1      -5.524  16.015  71.730  1.00  0.00    -0.301 N 
ENDROOT
BRANCH   7   8
HETATM    8  C6  UNL     1      -6.256  17.173  71.330  1.00  0.00     0.041 A 
HETATM    9  C7  UNL     1      -6.197  18.336  72.069  1.00  0.00     0.030 A 
HETATM   10  C8  UNL     1      -6.898  19.459  71.693  1.00  0.00     0.003 A 
HETATM   11  C9  UNL     1      -7.669  19.414  70.557  1.00  0.00     0.007 A 
HETATM   12  C10 UNL     1      -7.782  18.280  69.760  1.00  0.00    -0.050 A 
HETATM   13  C33 UNL     1      -7.033  17.184  70.220  1.00  0.00     0.037 A 
BRANCH  12  14
HETATM   14  C11 UNL     1      -8.617  18.226  68.561  1.00  0.00     0.043 C 
BRANCH  14  15
HETATM   15  C12 UNL     1      -8.907  19.458  67.807  1.00  0.00     0.036 C 
BRANCH  15  16
HETATM   16  C13 UNL     1      -8.039  19.950  66.738  1.00  0.00     0.088 C 
HETATM   17  C14 UNL     1      -7.056  18.753  66.443  1.00  0.00     0.045 C 
HETATM   18  C15 UNL     1      -6.447  19.065  65.112  1.00  0.00     0.129 C 
HETATM   19  N2  UNL     1      -5.825  20.357  65.135  1.00  0.00    -0.339 N 
HETATM   20  C16 UNL     1      -4.874  20.676  64.073  1.00  0.00     0.154 C 
HETATM   21  C17 UNL     1      -6.117  21.316  66.160  1.00  0.00     0.318 C 
HETATM   22  O2  UNL     1      -5.561  22.430  66.139  1.00  0.00    -0.247 OA
HETATM   23  N3  UNL     1      -7.040  20.957  67.174  1.00  0.00    -0.338 N 
HETATM   24  H21 UNL     1      -6.963  21.360  68.103  1.00  0.00     0.164 HD
ENDBRANCH  15  16
ENDBRANCH  14  15
BRANCH  14  25
HETATM   25  C18 UNL     1      -9.723  17.195  68.587  1.00  0.00     0.097 C 
BRANCH  25  26
HETATM   26  C19 UNL     1     -10.794  17.380  69.595  1.00  0.00     0.064 C 
BRANCH  26  27
HETATM   27  C20 UNL     1     -11.171  16.044  70.212  1.00  0.00    -0.056 A 
HETATM   28  C21 UNL     1     -10.204  15.175  70.672  1.00  0.00     0.007 A 
HETATM   29  C22 UNL     1     -10.562  13.949  71.239  1.00  0.00     0.001 A 
HETATM   30  C23 UNL     1     -11.897  13.588  71.348  1.00  0.00     0.000 A 
HETATM   31  C24 UNL     1     -12.853  14.447  70.895  1.00  0.00     0.001 A 
HETATM   32  C25 UNL     1     -12.487  15.657  70.335  1.00  0.00     0.007 A 
ENDBRANCH  26  27
ENDBRANCH  25  26
BRANCH  25  33
HETATM   33  N4  UNL     1     -10.396  17.123  67.292  1.00  0.00    -0.351 N 
HETATM   34  H30 UNL     1     -10.974  17.950  67.035  1.00  0.00     0.163 HD
BRANCH  33  35
HETATM   35  C26 UNL     1     -10.301  16.011  66.427  1.00  0.00     0.254 C 
HETATM   36  O3  UNL     1      -9.884  16.188  65.259  1.00  0.00    -0.268 OA
BRANCH  35  37
HETATM   37  C27 UNL     1     -10.689  14.696  66.913  1.00  0.00     0.068 A 
HETATM   38  C28 UNL     1     -11.971  14.210  67.059  1.00  0.00     0.157 A 
HETATM   39  N5  UNL     1     -11.903  12.974  67.527  1.00  0.00    -0.184 NA
HETATM   40  N6  UNL     1     -10.652  12.620  67.697  1.00  0.00    -0.276 N 
HETATM   41  C32 UNL     1      -9.884  13.653  67.329  1.00  0.00     0.131 A 
BRANCH  40  42
HETATM   42  C29 UNL     1     -10.255  11.303  68.202  1.00  0.00     0.101 C 
HETATM   43  C30 UNL     1      -9.042  11.447  69.095  1.00  0.00     0.034 C 
HETATM   44  C31 UNL     1     -11.410  10.739  68.994  1.00  0.00     0.034 C 
ENDBRANCH  40  42
ENDBRANCH  35  37
ENDBRANCH  33  35
ENDBRANCH  25  33
ENDBRANCH  14  25
ENDBRANCH  12  14
ENDBRANCH   7   8
TORSDOF 10
BEGIN_RES HIS A  41
REMARK  2 active torsions:
REMARK  status: ('A' for Active; 'I' for Inactive)
REMARK    1  A    between atoms: CA   and  CB  
REMARK    2  A    between atoms: CB   and  CG  
ROOT
ATOM      1  CA  HIS A  41     -13.820  21.037  73.265  1.00 38.89     0.182 C 
ENDROOT
BRANCH   1   2
ATOM      2  CB  HIS A  41     -13.705  19.545  72.937  1.00 42.38     0.093 C 
BRANCH   2   3
ATOM      3  CG  HIS A  41     -14.098  19.198  71.536  1.00 37.90     0.028 A 
ATOM      4  CD2 HIS A  41     -13.558  19.546  70.344  1.00 37.33     0.114 A 
ATOM      5  NE2 HIS A  41     -14.311  18.942  69.367  1.00 41.88    -0.360 N 
ATOM      6  CE1 HIS A  41     -15.276  18.243  69.938  1.00 41.55     0.180 A 
ATOM      7  HE2 HIS A  41     -14.152  19.021  68.362  1.00  0.00     0.166 HD
ATOM      8  ND1 HIS A  41     -15.168  18.378  71.247  1.00 36.57    -0.354 N 
ATOM      9  HD1 HIS A  41     -15.781  17.943  71.937  1.00  0.00     0.166 HD
ENDBRANCH   2   3
ENDBRANCH   1   2
END_RES HIS A  41
BEGIN_RES CYS A 145
REMARK  1 active torsions:
REMARK  status: ('A' for Active; 'I' for Inactive)
REMARK    3  A    between atoms: CA   and  CB  
ROOT
ATOM     10  CA  CYS A 145     -14.607  19.162  64.101  1.00 29.71     0.186 C 
ENDROOT
BRANCH  10  11
ATOM     11  CB  CYS A 145     -14.100  19.110  65.541  1.00 31.75     0.120 C 
ATOM     12  SG  CYS A 145     -13.784  17.439  66.136  1.00 39.68    -0.095 SA
ENDBRANCH  10  11
END_RES CYS A 145
BEGIN_RES GLN A 189
REMARK  3 active torsions:
REMARK  status: ('A' for Active; 'I' for Inactive)
REMARK    4  A    between atoms: CA   and  CB  
REMARK    5  A    between atoms: CB   and  CG  
REMARK    6  A    between atoms: CG   and  CD  
REMARK       I    between atoms: CD   and  NE2 
ROOT
ATOM     13  CA  GLN A 189     -11.641  10.633  75.105  1.00 38.41     0.177 C 
ENDROOT
BRANCH  13  14
ATOM     14  CB  GLN A 189     -10.259  11.109  74.679  1.00 37.59     0.044 C 
BRANCH  14  15
ATOM     15  CG  GLN A 189      -9.940  10.820  73.221  1.00 45.60     0.105 C 
BRANCH  15  16
ATOM     16  CD  GLN A 189      -8.489  11.084  72.875  1.00 47.27     0.215 C 
ATOM     17  NE2 GLN A 189      -7.980  12.238  73.293  1.00 44.45    -0.370 N 
ATOM     18 2HE2 GLN A 189      -8.525  12.921  73.820  1.00  0.00     0.159 HD
ATOM     19 1HE2 GLN A 189      -7.003  12.416  73.060  1.00  0.00     0.159 HD
ATOM     20  OE1 GLN A 189      -7.832  10.260  72.239  1.00 41.09    -0.274 OA
ENDBRANCH  15  16
ENDBRANCH  14  15
ENDBRANCH  13  14
END_RES GLN A 189
BEGIN_RES ASN A 142
REMARK  2 active torsions:
REMARK  status: ('A' for Active; 'I' for Inactive)
REMARK    7  A    between atoms: CA   and  CB  
REMARK    8  A    between atoms: CB   and  CG  
REMARK       I    between atoms: CG   and  ND2 
ROOT
ATOM     21  CA  ASN A 142      -7.978  15.712  62.559  1.00 43.18     0.185 C 
ENDROOT
BRANCH  21  22
ATOM     22  CB  ASN A 142      -6.512  15.609  62.983  1.00 38.76     0.137 C 
BRANCH  22  23
ATOM     23  CG  ASN A 142      -6.348  15.139  64.416  1.00 50.71     0.217 C 
ATOM     24  ND2 ASN A 142      -5.304  15.621  65.081  1.00 55.08    -0.370 N 
ATOM     25 2HD2 ASN A 142      -4.639  16.272  64.662  1.00  0.00     0.159 HD
ATOM     26 1HD2 ASN A 142      -5.194  15.305  66.044  1.00  0.00     0.159 HD
ATOM     27  OD1 ASN A 142      -7.150  14.354  64.921  1.00 51.97    -0.274 OA
ENDBRANCH  22  23
ENDBRANCH  21  22
END_RES ASN A 142
BEGIN_RES LEU A  27
REMARK  2 active torsions:
REMARK  status: ('A' for Active; 'I' for Inactive)
REMARK    9  A    between atoms: CA   and  CB  
REMARK   10  A    between atoms: CB   and  CG  
ROOT
ATOM     28  CA  LEU A  27     -11.471  23.771  64.549  1.00 37.04     0.177 C 
ENDROOT
BRANCH  28  29
ATOM     29  CB  LEU A  27     -12.225  22.902  65.570  1.00 37.70     0.038 C 
BRANCH  29  30
ATOM     30  CG  LEU A  27     -12.589  23.429  66.958  1.00 36.32    -0.020 C 
ATOM     31  CD1 LEU A  27     -13.754  24.404  66.899  1.00 32.79     0.009 C 
ATOM     32  CD2 LEU A  27     -12.925  22.257  67.869  1.00 31.17     0.009 C 
ENDBRANCH  29  30
ENDBRANCH  28  29
END_RES LEU A  27
BEGIN_RES MET A  49
REMARK  3 active torsions:
REMARK  status: ('A' for Active; 'I' for Inactive)
REMARK   11  A    between atoms: CA   and  CB  
REMARK   12  A    between atoms: CB   and  CG  
REMARK   13  A    between atoms: CG   and  SD  
ROOT
ATOM     33  CA  MET A  49      -9.418  15.600  76.823  1.00 61.58     0.177 C 
ENDROOT
BRANCH  33  34
ATOM     34  CB  MET A  49      -8.930  15.410  75.386  1.00 62.15     0.045 C 
BRANCH  34  35
ATOM     35  CG  MET A  49      -9.567  16.370  74.394  1.00 60.24     0.076 C 
BRANCH  35  36
ATOM     36  SD  MET A  49     -11.176  16.984  74.929  1.00 77.15    -0.173 SA
ATOM     37  CE  MET A  49     -12.240  15.644  74.398  1.00 60.34     0.089 C 
ENDBRANCH  35  36
ENDBRANCH  34  35
ENDBRANCH  33  34
END_RES MET A  49
BEGIN_RES GLU A 166
REMARK  3 active torsions:
REMARK  status: ('A' for Active; 'I' for Inactive)
REMARK   14  A    between atoms: CA   and  CB  
REMARK   15  A    between atoms: CB   and  CG  
REMARK   16  A    between atoms: CG   and  CD  
ROOT
ATOM     38  CA  GLU A 166     -14.746   9.219  66.167  1.00 28.52     0.177 C 
ENDROOT
BRANCH  38  39
ATOM     39  CB  GLU A 166     -13.578   9.064  65.189  1.00 29.90     0.045 C 
BRANCH  39  40
ATOM     40  CG  GLU A 166     -12.413  10.011  65.407  1.00 36.08     0.116 C 
BRANCH  40  41
ATOM     41  CD  GLU A 166     -12.350  11.088  64.341  1.00 45.17     0.172 C 
ATOM     42  OE2 GLU A 166     -11.514  10.967  63.421  1.00 40.54    -0.648 OA
ATOM     43  OE1 GLU A 166     -13.144  12.051  64.415  1.00 50.70    -0.648 OA
ENDBRANCH  40  41
ENDBRANCH  39  40
ENDBRANCH  38  39
END_RES GLU A 166
BEGIN_RES HIS A 163
REMARK  2 active torsions:
REMARK  status: ('A' for Active; 'I' for Inactive)
REMARK   17  A    between atoms: CA   and  CB  
REMARK   18  A    between atoms: CB   and  CG  
ROOT
ATOM     44  CA  HIS A 163     -19.055  16.637  64.100  1.00 27.27     0.182 C 
ENDROOT
BRANCH  44  45
ATOM     45  CB  HIS A 163     -18.129  16.377  62.914  1.00 26.00     0.093 C 
BRANCH  45  46
ATOM     46  CG  HIS A 163     -17.084  15.342  63.189  1.00 26.66     0.028 A 
ATOM     47  ND1 HIS A 163     -15.741  15.642  63.251  1.00 26.97    -0.354 N 
ATOM     48  CE1 HIS A 163     -15.056  14.540  63.501  1.00 30.44     0.180 A 
ATOM     49  HD1 HIS A 163     -15.337  16.571  63.125  1.00  0.00     0.166 HD
ATOM     50  NE2 HIS A 163     -15.909  13.535  63.597  1.00 30.00    -0.360 N 
ATOM     51  CD2 HIS A 163     -17.183  14.010  63.406  1.00 29.24     0.114 A 
ATOM     52  HE2 HIS A 163     -15.660  12.563  63.784  1.00  0.00     0.166 HD
ENDBRANCH  45  46
ENDBRANCH  44  45
END_RES HIS A 163
BEGIN_RES HIS A 172
REMARK  2 active torsions:
REMARK  status: ('A' for Active; 'I' for Inactive)
REMARK   19  A    between atoms: CA   and  CB  
REMARK   20  A    between atoms: CB   and  CG  
ROOT
ATOM     53  CA  HIS A 172     -18.444   9.111  64.049  1.00 29.85     0.182 C 
ENDROOT
BRANCH  53  54
ATOM     54  CB  HIS A 172     -18.188  10.085  62.898  1.00 26.76     0.093 C 
BRANCH  54  55
ATOM     55  CG  HIS A 172     -16.867   9.881  62.225  1.00 28.76     0.028 A 
ATOM     56  CD2 HIS A 172     -15.610  10.202  62.613  1.00 29.36     0.114 A 
ATOM     57  NE2 HIS A 172     -14.759   9.777  61.622  1.00 33.77    -0.360 N 
ATOM     58  CE1 HIS A 172     -15.467   9.210  60.661  1.00 32.44     0.180 A 
ATOM     59  HE2 HIS A 172     -13.744   9.883  61.627  1.00  0.00     0.166 HD
ATOM     60  ND1 HIS A 172     -16.743   9.255  61.002  1.00 29.32    -0.354 N 
ATOM     61  HD1 HIS A 172     -17.516   8.886  60.448  1.00  0.00     0.166 HD
ENDBRANCH  54  55
ENDBRANCH  53  54
END_RES HIS A 172
BEGIN_RES THR A  26
REMARK  2 active torsions:
REMARK  status: ('A' for Active; 'I' for Inactive)
REMARK   21  A    between atoms: CA   and  CB  
REMARK   22  A    between atoms: CB   and  OG1 
ROOT
ATOM     62  CA  THR A  26      -8.224  25.031  66.060  1.00 43.98     0.205 C 
ENDROOT
BRANCH  62  63
ATOM     63  CB  THR A  26      -7.184  25.490  65.034  1.00 45.90     0.146 C 
ATOM     64  CG2 THR A  26      -7.853  26.083  63.792  1.00 47.20     0.042 C 
BRANCH  63  65
ATOM     65  OG1 THR A  26      -6.316  26.463  65.625  1.00 50.51    -0.393 OA
ATOM     66  HG1 THR A  26      -5.411  26.254  65.422  1.00  0.00     0.210 HD
ENDBRANCH  63  65
ENDBRANCH  62  63
END_RES THR A  26
ENDMDL
MODEL 8
REMARK VINA RESULT:      -7.6      2.039      5.210
REMARK  11 active torsions:
REMARK  status: ('A' for Active; 'I' for Inactive)
REMARK    1  A    between atoms: N1_7  and  C6_8 
REMARK    2  A    between atoms: C10_12  and  C11_13 
REMARK    3  A    between atoms: C11_13  and  C12_14 
REMARK    4  A    between atoms: C11_13  and  C18_23 
REMARK    5  A    between atoms: C12_14  and  C13_15 
REMARK    6  A    between atoms: C18_23  and  C19_24 
REMARK    7  A    between atoms: C18_23  and  N4_31 
REMARK    8  A    between atoms: C19_24  and  C20_25 
REMARK    9  A    between atoms: N4_31  and  C26_32 
REMARK   10  A    between atoms: C26_32  and  C27_34 
REMARK   11  A    between atoms: N6_37  and  C29_38 
ROOT
HETATM    1  C1  UNL     1      -7.453  16.855  72.018  1.00  0.00     0.040 C 
HETATM    2  C2  UNL     1      -7.369  15.825  70.966  1.00  0.00     0.026 C 
HETATM    3  C3  UNL     1      -6.441  15.913  70.043  1.00  0.00     0.149 A 
HETATM    4  O1  UNL     1      -5.472  16.911  69.925  1.00  0.00    -0.304 OA
HETATM    5  C4  UNL     1      -4.715  16.598  68.814  1.00  0.00     0.162 A 
HETATM    6  C5  UNL     1      -5.136  15.489  68.237  1.00  0.00     0.124 A 
HETATM    7  N1  UNL     1      -6.242  15.000  68.977  1.00  0.00    -0.301 N 
ENDROOT
BRANCH   7   8
HETATM    8  C6  UNL     1      -6.952  13.809  68.637  1.00  0.00     0.041 A 
HETATM    9  C7  UNL     1      -6.277  12.646  68.332  1.00  0.00     0.030 A 
HETATM   10  C8  UNL     1      -6.951  11.493  68.003  1.00  0.00     0.003 A 
HETATM   11  C9  UNL     1      -8.324  11.506  67.980  1.00  0.00     0.007 A 
HETATM   12  C10 UNL     1      -9.077  12.638  68.273  1.00  0.00    -0.050 A 
HETATM   13  C33 UNL     1      -8.307  13.766  68.598  1.00  0.00     0.037 A 
BRANCH  12  14
HETATM   14  C11 UNL     1     -10.539  12.657  68.232  1.00  0.00     0.043 C 
BRANCH  14  15
HETATM   15  C12 UNL     1     -11.299  11.407  68.404  1.00  0.00     0.036 C 
BRANCH  15  16
HETATM   16  C13 UNL     1     -11.310  10.659  69.659  1.00  0.00     0.088 C 
HETATM   17  C14 UNL     1     -10.807   9.216  69.266  1.00  0.00     0.045 C 
HETATM   18  C15 UNL     1     -10.423   8.568  70.559  1.00  0.00     0.129 C 
HETATM   19  N2  UNL     1     -11.526   8.587  71.476  1.00  0.00    -0.339 N 
HETATM   20  C16 UNL     1     -11.470   7.691  72.628  1.00  0.00     0.154 C 
HETATM   21  C17 UNL     1     -12.652   9.453  71.283  1.00  0.00     0.318 C 
HETATM   22  O2  UNL     1     -13.585   9.443  72.108  1.00  0.00    -0.247 OA
HETATM   23  N3  UNL     1     -12.664  10.298  70.146  1.00  0.00    -0.338 N 
HETATM   24  H21 UNL     1     -13.545  10.578  69.724  1.00  0.00     0.164 HD
ENDBRANCH  15  16
ENDBRANCH  14  15
BRANCH  14  25
HETATM   25  C18 UNL     1     -11.146  13.673  67.290  1.00  0.00     0.097 C 
BRANCH  25  26
HETATM   26  C19 UNL     1     -11.737  13.158  66.032  1.00  0.00     0.064 C 
BRANCH  26  27
HETATM   27  C20 UNL     1     -10.677  12.448  65.206  1.00  0.00    -0.056 A 
HETATM   28  C21 UNL     1      -9.530  13.101  64.807  1.00  0.00     0.007 A 
HETATM   29  C22 UNL     1      -8.562  12.438  64.049  1.00  0.00     0.001 A 
HETATM   30  C23 UNL     1      -8.740  11.111  63.687  1.00  0.00     0.000 A 
HETATM   31  C24 UNL     1      -9.873  10.464  64.082  1.00  0.00     0.001 A 
HETATM   32  C25 UNL     1     -10.824  11.131  64.831  1.00  0.00     0.007 A 
ENDBRANCH  26  27
ENDBRANCH  25  26
BRANCH  25  33
HETATM   33  N4  UNL     1     -12.208  14.426  67.955  1.00  0.00    -0.351 N 
HETATM   34  H30 UNL     1     -13.048  14.632  67.376  1.00  0.00     0.163 HD
BRANCH  33  35
HETATM   35  C26 UNL     1     -12.125  14.874  69.292  1.00  0.00     0.254 C 
HETATM   36  O3  UNL     1     -12.648  14.180  70.195  1.00  0.00    -0.268 OA
BRANCH  35  37
HETATM   37  C27 UNL     1     -11.438  16.122  69.583  1.00  0.00     0.068 A 
HETATM   38  C28 UNL     1     -11.270  16.708  70.820  1.00  0.00     0.157 A 
HETATM   39  N5  UNL     1     -10.591  17.834  70.664  1.00  0.00    -0.184 NA
HETATM   40  N6  UNL     1     -10.304  18.021  69.398  1.00  0.00    -0.276 N 
HETATM   41  C32 UNL     1     -10.809  16.990  68.710  1.00  0.00     0.131 A 
BRANCH  40  42
HETATM   42  C29 UNL     1      -9.555  19.183  68.911  1.00  0.00     0.101 C 
HETATM   43  C30 UNL     1      -8.185  18.744  68.444  1.00  0.00     0.034 C 
HETATM   44  C31 UNL     1     -10.322  19.784  67.758  1.00  0.00     0.034 C 
ENDBRANCH  40  42
ENDBRANCH  35  37
ENDBRANCH  33  35
ENDBRANCH  25  33
ENDBRANCH  14  25
ENDBRANCH  12  14
ENDBRANCH   7   8
TORSDOF 10
BEGIN_RES HIS A  41
REMARK  2 active torsions:
REMARK  status: ('A' for Active; 'I' for Inactive)
REMARK    1  A    between atoms: CA   and  CB  
REMARK    2  A    between atoms: CB   and  CG  
ROOT
ATOM      1  CA  HIS A  41     -13.820  21.037  73.265  1.00 38.89     0.182 C 
ENDROOT
BRANCH   1   2
ATOM      2  CB  HIS A  41     -13.705  19.545  72.937  1.00 42.38     0.093 C 
BRANCH   2   3
ATOM      3  CG  HIS A  41     -14.010  19.210  71.511  1.00 37.90     0.028 A 
ATOM      4  CD2 HIS A  41     -14.997  18.466  70.959  1.00 37.33     0.114 A 
ATOM      5  NE2 HIS A  41     -14.811  18.491  69.598  1.00 41.88    -0.360 N 
ATOM      6  CE1 HIS A  41     -13.750  19.230  69.324  1.00 41.55     0.180 A 
ATOM      7  HE2 HIS A  41     -15.397  18.017  68.911  1.00  0.00     0.166 HD
ATOM      8  ND1 HIS A  41     -13.249  19.678  70.461  1.00 36.57    -0.354 N 
ATOM      9  HD1 HIS A  41     -12.428  20.277  70.548  1.00  0.00     0.166 HD
ENDBRANCH   2   3
ENDBRANCH   1   2
END_RES HIS A  41
BEGIN_RES CYS A 145
REMARK  1 active torsions:
REMARK  status: ('A' for Active; 'I' for Inactive)
REMARK    3  A    between atoms: CA   and  CB  
ROOT
ATOM     10  CA  CYS A 145     -14.607  19.162  64.101  1.00 29.71     0.186 C 
ENDROOT
BRANCH  10  11
ATOM     11  CB  CYS A 145     -14.100  19.110  65.541  1.00 31.75     0.120 C 
ATOM     12  SG  CYS A 145     -13.523  17.479  66.046  1.00 39.68    -0.095 SA
ENDBRANCH  10  11
END_RES CYS A 145
BEGIN_RES GLN A 189
REMARK  3 active torsions:
REMARK  status: ('A' for Active; 'I' for Inactive)
REMARK    4  A    between atoms: CA   and  CB  
REMARK    5  A    between atoms: CB   and  CG  
REMARK    6  A    between atoms: CG   and  CD  
REMARK       I    between atoms: CD   and  NE2 
ROOT
ATOM     13  CA  GLN A 189     -11.641  10.633  75.105  1.00 38.41     0.177 C 
ENDROOT
BRANCH  13  14
ATOM     14  CB  GLN A 189     -10.259  11.109  74.679  1.00 37.59     0.044 C 
BRANCH  14  15
ATOM     15  CG  GLN A 189     -10.100  11.240  73.173  1.00 45.60     0.105 C 
BRANCH  15  16
ATOM     16  CD  GLN A 189     -10.774  12.479  72.618  1.00 47.27     0.215 C 
ATOM     17  NE2 GLN A 189     -10.015  13.291  71.890  1.00 44.45    -0.370 N 
ATOM     18 2HE2 GLN A 189      -9.029  13.105  71.706  1.00  0.00     0.159 HD
ATOM     19 1HE2 GLN A 189     -10.468  14.125  71.517  1.00  0.00     0.159 HD
ATOM     20  OE1 GLN A 189     -11.963  12.704  72.842  1.00 41.09    -0.274 OA
ENDBRANCH  15  16
ENDBRANCH  14  15
ENDBRANCH  13  14
END_RES GLN A 189
BEGIN_RES ASN A 142
REMARK  2 active torsions:
REMARK  status: ('A' for Active; 'I' for Inactive)
REMARK    7  A    between atoms: CA   and  CB  
REMARK    8  A    between atoms: CB   and  CG  
REMARK       I    between atoms: CG   and  ND2 
ROOT
ATOM     21  CA  ASN A 142      -7.978  15.712  62.559  1.00 43.18     0.185 C 
ENDROOT
BRANCH  21  22
ATOM     22  CB  ASN A 142      -6.512  15.609  62.983  1.00 38.76     0.137 C 
BRANCH  22  23
ATOM     23  CG  ASN A 142      -6.343  15.495  64.486  1.00 50.71     0.217 C 
ATOM     24  ND2 ASN A 142      -5.785  14.378  64.936  1.00 55.08    -0.370 N 
ATOM     25 2HD2 ASN A 142      -5.481  13.627  64.315  1.00  0.00     0.159 HD
ATOM     26 1HD2 ASN A 142      -5.671  14.301  65.947  1.00  0.00     0.159 HD
ATOM     27  OD1 ASN A 142      -6.710  16.400  65.235  1.00 51.97    -0.274 OA
ENDBRANCH  22  23
ENDBRANCH  21  22
END_RES ASN A 142
BEGIN_RES LEU A  27
REMARK  2 active torsions:
REMARK  status: ('A' for Active; 'I' for Inactive)
REMARK    9  A    between atoms: CA   and  CB  
REMARK   10  A    between atoms: CB   and  CG  
ROOT
ATOM     28  CA  LEU A  27     -11.471  23.771  64.549  1.00 37.04     0.177 C 
ENDROOT
BRANCH  28  29
ATOM     29  CB  LEU A  27     -12.225  22.902  65.570  1.00 37.70     0.038 C 
BRANCH  29  30
ATOM     30  CG  LEU A  27     -12.598  23.432  66.955  1.00 36.32    -0.020 C 
ATOM     31  CD1 LEU A  27     -13.699  24.477  66.875  1.00 32.79     0.009 C 
ATOM     32  CD2 LEU A  27     -13.032  22.272  67.838  1.00 31.17     0.009 C 
ENDBRANCH  29  30
ENDBRANCH  28  29
END_RES LEU A  27
BEGIN_RES MET A  49
REMARK  3 active torsions:
REMARK  status: ('A' for Active; 'I' for Inactive)
REMARK   11  A    between atoms: CA   and  CB  
REMARK   12  A    between atoms: CB   and  CG  
REMARK   13  A    between atoms: CG   and  SD  
ROOT
ATOM     33  CA  MET A  49      -9.418  15.600  76.823  1.00 61.58     0.177 C 
ENDROOT
BRANCH  33  34
ATOM     34  CB  MET A  49      -8.930  15.410  75.386  1.00 62.15     0.045 C 
BRANCH  34  35
ATOM     35  CG  MET A  49      -9.868  15.995  74.342  1.00 60.24     0.076 C 
BRANCH  35  36
ATOM     36  SD  MET A  49     -11.334  16.768  75.053  1.00 77.15    -0.173 SA
ATOM     37  CE  MET A  49     -12.631  15.885  74.186  1.00 60.34     0.089 C 
ENDBRANCH  35  36
ENDBRANCH  34  35
ENDBRANCH  33  34
END_RES MET A  49
BEGIN_RES GLU A 166
REMARK  3 active torsions:
REMARK  status: ('A' for Active; 'I' for Inactive)
REMARK   14  A    between atoms: CA   and  CB  
REMARK   15  A    between atoms: CB   and  CG  
REMARK   16  A    between atoms: CG   and  CD  
ROOT
ATOM     38  CA  GLU A 166     -14.746   9.219  66.167  1.00 28.52     0.177 C 
ENDROOT
BRANCH  38  39
ATOM     39  CB  GLU A 166     -13.578   9.064  65.189  1.00 29.90     0.045 C 
BRANCH  39  40
ATOM     40  CG  GLU A 166     -13.625   7.833  64.305  1.00 36.08     0.116 C 
BRANCH  40  41
ATOM     41  CD  GLU A 166     -12.378   7.699  63.451  1.00 45.17     0.172 C 
ATOM     42  OE2 GLU A 166     -11.332   7.277  63.987  1.00 40.54    -0.648 OA
ATOM     43  OE1 GLU A 166     -12.445   8.005  62.241  1.00 50.70    -0.648 OA
ENDBRANCH  40  41
ENDBRANCH  39  40
ENDBRANCH  38  39
END_RES GLU A 166
BEGIN_RES HIS A 163
REMARK  2 active torsions:
REMARK  status: ('A' for Active; 'I' for Inactive)
REMARK   17  A    between atoms: CA   and  CB  
REMARK   18  A    between atoms: CB   and  CG  
ROOT
ATOM     44  CA  HIS A 163     -19.055  16.637  64.100  1.00 27.27     0.182 C 
ENDROOT
BRANCH  44  45
ATOM     45  CB  HIS A 163     -18.129  16.377  62.914  1.00 26.00     0.093 C 
BRANCH  45  46
ATOM     46  CG  HIS A 163     -17.101  15.323  63.180  1.00 26.66     0.028 A 
ATOM     47  ND1 HIS A 163     -15.754  15.603  63.256  1.00 26.97    -0.354 N 
ATOM     48  CE1 HIS A 163     -15.087  14.488  63.493  1.00 30.44     0.180 A 
ATOM     49  HD1 HIS A 163     -15.336  16.528  63.147  1.00  0.00     0.166 HD
ATOM     50  NE2 HIS A 163     -15.954  13.493  63.569  1.00 30.00    -0.360 N 
ATOM     51  CD2 HIS A 163     -17.220  13.989  63.376  1.00 29.24     0.114 A 
ATOM     52  HE2 HIS A 163     -15.720  12.516  63.742  1.00  0.00     0.166 HD
ENDBRANCH  45  46
ENDBRANCH  44  45
END_RES HIS A 163
BEGIN_RES HIS A 172
REMARK  2 active torsions:
REMARK  status: ('A' for Active; 'I' for Inactive)
REMARK   19  A    between atoms: CA   and  CB  
REMARK   20  A    between atoms: CB   and  CG  
ROOT
ATOM     53  CA  HIS A 172     -18.444   9.111  64.049  1.00 29.85     0.182 C 
ENDROOT
BRANCH  53  54
ATOM     54  CB  HIS A 172     -18.188  10.085  62.898  1.00 26.76     0.093 C 
BRANCH  54  55
ATOM     55  CG  HIS A 172     -16.882   9.858  62.203  1.00 28.76     0.028 A 
ATOM     56  CD2 HIS A 172     -15.619  10.209  62.543  1.00 29.36     0.114 A 
ATOM     57  NE2 HIS A 172     -14.788   9.743  61.553  1.00 33.77    -0.360 N 
ATOM     58  CE1 HIS A 172     -15.515   9.123  60.639  1.00 32.44     0.180 A 
ATOM     59  HE2 HIS A 172     -13.775   9.857  61.528  1.00  0.00     0.166 HD
ATOM     60  ND1 HIS A 172     -16.783   9.176  61.009  1.00 29.32    -0.354 N 
ATOM     61  HD1 HIS A 172     -17.565   8.774  60.493  1.00  0.00     0.166 HD
ENDBRANCH  54  55
ENDBRANCH  53  54
END_RES HIS A 172
BEGIN_RES THR A  26
REMARK  2 active torsions:
REMARK  status: ('A' for Active; 'I' for Inactive)
REMARK   21  A    between atoms: CA   and  CB  
REMARK   22  A    between atoms: CB   and  OG1 
ROOT
ATOM     62  CA  THR A  26      -8.224  25.031  66.060  1.00 43.98     0.205 C 
ENDROOT
BRANCH  62  63
ATOM     63  CB  THR A  26      -7.184  25.490  65.034  1.00 45.90     0.146 C 
ATOM     64  CG2 THR A  26      -7.853  26.037  63.771  1.00 47.20     0.042 C 
BRANCH  63  65
ATOM     65  OG1 THR A  26      -6.345  26.497  65.610  1.00 50.51    -0.393 OA
ATOM     66  HG1 THR A  26      -6.554  27.344  65.235  1.00  0.00     0.210 HD
ENDBRANCH  63  65
ENDBRANCH  62  63
END_RES THR A  26
ENDMDL
MODEL 9
REMARK VINA RESULT:      -7.6      1.198      2.016
REMARK  11 active torsions:
REMARK  status: ('A' for Active; 'I' for Inactive)
REMARK    1  A    between atoms: N1_7  and  C6_8 
REMARK    2  A    between atoms: C10_12  and  C11_13 
REMARK    3  A    between atoms: C11_13  and  C12_14 
REMARK    4  A    between atoms: C11_13  and  C18_23 
REMARK    5  A    between atoms: C12_14  and  C13_15 
REMARK    6  A    between atoms: C18_23  and  C19_24 
REMARK    7  A    between atoms: C18_23  and  N4_31 
REMARK    8  A    between atoms: C19_24  and  C20_25 
REMARK    9  A    between atoms: N4_31  and  C26_32 
REMARK   10  A    between atoms: C26_32  and  C27_34 
REMARK   11  A    between atoms: N6_37  and  C29_38 
ROOT
HETATM    1  C1  UNL     1      -4.833  20.954  69.590  1.00  0.00     0.040 C 
HETATM    2  C2  UNL     1      -6.016  20.410  68.898  1.00  0.00     0.026 C 
HETATM    3  C3  UNL     1      -6.020  20.323  67.589  1.00  0.00     0.149 A 
HETATM    4  O1  UNL     1      -4.992  20.700  66.724  1.00  0.00    -0.304 OA
HETATM    5  C4  UNL     1      -5.433  20.430  65.443  1.00  0.00     0.162 A 
HETATM    6  C5  UNL     1      -6.649  19.917  65.448  1.00  0.00     0.124 A 
HETATM    7  N1  UNL     1      -7.082  19.823  66.795  1.00  0.00    -0.301 N 
ENDROOT
BRANCH   7   8
HETATM    8  C6  UNL     1      -8.359  19.309  67.176  1.00  0.00     0.041 A 
HETATM    9  C7  UNL     1      -9.455  20.141  67.273  1.00  0.00     0.030 A 
HETATM   10  C8  UNL     1     -10.690  19.657  67.639  1.00  0.00     0.003 A 
HETATM   11  C9  UNL     1     -10.827  18.318  67.912  1.00  0.00     0.007 A 
HETATM   12  C10 UNL     1      -9.771  17.415  67.837  1.00  0.00    -0.050 A 
HETATM   13  C33 UNL     1      -8.551  17.997  67.457  1.00  0.00     0.037 A 
BRANCH  12  14
HETATM   14  C11 UNL     1      -9.913  15.993  68.144  1.00  0.00     0.043 C 
BRANCH  14  15
HETATM   15  C12 UNL     1     -11.091  15.249  67.667  1.00  0.00     0.036 C 
BRANCH  15  16
HETATM   16  C13 UNL     1     -11.094  14.501  66.410  1.00  0.00     0.088 C 
HETATM   17  C14 UNL     1     -11.833  13.150  66.755  1.00  0.00     0.045 C 
HETATM   18  C15 UNL     1     -12.208  12.560  65.432  1.00  0.00     0.129 C 
HETATM   19  N2  UNL     1     -11.048  12.412  64.601  1.00  0.00    -0.339 N 
HETATM   20  C16 UNL     1     -11.147  11.529  63.442  1.00  0.00     0.154 C 
HETATM   21  C17 UNL     1      -9.824  13.103  64.886  1.00  0.00     0.318 C 
HETATM   22  O2  UNL     1      -8.842  12.952  64.134  1.00  0.00    -0.247 OA
HETATM   23  N3  UNL     1      -9.775  13.942  66.026  1.00  0.00    -0.338 N 
HETATM   24  H21 UNL     1      -8.897  14.091  66.515  1.00  0.00     0.164 HD
ENDBRANCH  15  16
ENDBRANCH  14  15
BRANCH  14  25
HETATM   25  C18 UNL     1      -9.361  15.561  69.484  1.00  0.00     0.097 C 
BRANCH  25  26
HETATM   26  C19 UNL     1      -9.912  16.228  70.688  1.00  0.00     0.064 C 
BRANCH  26  27
HETATM   27  C20 UNL     1      -8.957  17.305  71.175  1.00  0.00    -0.056 A 
HETATM   28  C21 UNL     1      -7.624  17.027  71.396  1.00  0.00     0.007 A 
HETATM   29  C22 UNL     1      -6.756  18.026  71.842  1.00  0.00     0.001 A 
HETATM   30  C23 UNL     1      -7.221  19.313  72.071  1.00  0.00     0.000 A 
HETATM   31  C24 UNL     1      -8.538  19.588  71.853  1.00  0.00     0.001 A 
HETATM   32  C25 UNL     1      -9.388  18.591  71.411  1.00  0.00     0.007 A 
ENDBRANCH  26  27
ENDBRANCH  25  26
BRANCH  25  33
HETATM   33  N4  UNL     1      -9.560  14.128  69.691  1.00  0.00    -0.351 N 
HETATM   34  H30 UNL     1     -10.550  13.815  69.770  1.00  0.00     0.163 HD
BRANCH  33  35
HETATM   35  C26 UNL     1      -8.499  13.202  69.794  1.00  0.00     0.254 C 
HETATM   36  O3  UNL     1      -7.808  13.188  70.839  1.00  0.00    -0.268 OA
BRANCH  35  37
HETATM   37  C27 UNL     1      -8.237  12.294  68.687  1.00  0.00     0.068 A 
HETATM   38  C28 UNL     1      -9.003  11.214  68.302  1.00  0.00     0.157 A 
HETATM   39  N5  UNL     1      -8.430  10.645  67.253  1.00  0.00    -0.184 NA
HETATM   40  N6  UNL     1      -7.335  11.288  66.927  1.00  0.00    -0.276 N 
HETATM   41  C32 UNL     1      -7.189  12.303  67.787  1.00  0.00     0.131 A 
BRANCH  40  42
HETATM   42  C29 UNL     1      -6.482  10.896  65.802  1.00  0.00     0.101 C 
HETATM   43  C30 UNL     1      -5.637  12.075  65.370  1.00  0.00     0.034 C 
HETATM   44  C31 UNL     1      -5.590   9.769  66.262  1.00  0.00     0.034 C 
ENDBRANCH  40  42
ENDBRANCH  35  37
ENDBRANCH  33  35
ENDBRANCH  25  33
ENDBRANCH  14  25
ENDBRANCH  12  14
ENDBRANCH   7   8
TORSDOF 10
BEGIN_RES HIS A  41
REMARK  2 active torsions:
REMARK  status: ('A' for Active; 'I' for Inactive)
REMARK    1  A    between atoms: CA   and  CB  
REMARK    2  A    between atoms: CB   and  CG  
ROOT
ATOM      1  CA  HIS A  41     -13.820  21.037  73.265  1.00 38.89     0.182 C 
ENDROOT
BRANCH   1   2
ATOM      2  CB  HIS A  41     -13.705  19.545  72.937  1.00 42.38     0.093 C 
BRANCH   2   3
ATOM      3  CG  HIS A  41     -14.071  19.202  71.527  1.00 37.90     0.028 A 
ATOM      4  CD2 HIS A  41     -13.461  19.485  70.352  1.00 37.33     0.114 A 
ATOM      5  NE2 HIS A  41     -14.221  18.921  69.356  1.00 41.88    -0.360 N 
ATOM      6  CE1 HIS A  41     -15.258  18.309  69.901  1.00 41.55     0.180 A 
ATOM      7  HE2 HIS A  41     -14.019  18.968  68.357  1.00  0.00     0.166 HD
ATOM      8  ND1 HIS A  41     -15.189  18.461  71.211  1.00 36.57    -0.354 N 
ATOM      9  HD1 HIS A  41     -15.859  18.087  71.884  1.00  0.00     0.166 HD
ENDBRANCH   2   3
ENDBRANCH   1   2
END_RES HIS A  41
BEGIN_RES CYS A 145
REMARK  1 active torsions:
REMARK  status: ('A' for Active; 'I' for Inactive)
REMARK    3  A    between atoms: CA   and  CB  
ROOT
ATOM     10  CA  CYS A 145     -14.607  19.162  64.101  1.00 29.71     0.186 C 
ENDROOT
BRANCH  10  11
ATOM     11  CB  CYS A 145     -14.100  19.110  65.541  1.00 31.75     0.120 C 
ATOM     12  SG  CYS A 145     -13.787  17.439  66.138  1.00 39.68    -0.095 SA
ENDBRANCH  10  11
END_RES CYS A 145
BEGIN_RES GLN A 189
REMARK  3 active torsions:
REMARK  status: ('A' for Active; 'I' for Inactive)
REMARK    4  A    between atoms: CA   and  CB  
REMARK    5  A    between atoms: CB   and  CG  
REMARK    6  A    between atoms: CG   and  CD  
REMARK       I    between atoms: CD   and  NE2 
ROOT
ATOM     13  CA  GLN A 189     -11.641  10.633  75.105  1.00 38.41     0.177 C 
ENDROOT
BRANCH  13  14
ATOM     14  CB  GLN A 189     -10.259  11.109  74.679  1.00 37.59     0.044 C 
BRANCH  14  15
ATOM     15  CG  GLN A 189     -10.020  11.015  73.181  1.00 45.60     0.105 C 
BRANCH  15  16
ATOM     16  CD  GLN A 189     -10.858  11.999  72.390  1.00 47.27     0.215 C 
ATOM     17  NE2 GLN A 189     -11.738  11.480  71.541  1.00 44.45    -0.370 N 
ATOM     18 2HE2 GLN A 189     -11.855  10.475  71.415  1.00  0.00     0.159 HD
ATOM     19 1HE2 GLN A 189     -12.302  12.142  71.008  1.00  0.00     0.159 HD
ATOM     20  OE1 GLN A 189     -10.717  13.213  72.542  1.00 41.09    -0.274 OA
ENDBRANCH  15  16
ENDBRANCH  14  15
ENDBRANCH  13  14
END_RES GLN A 189
BEGIN_RES ASN A 142
REMARK  2 active torsions:
REMARK  status: ('A' for Active; 'I' for Inactive)
REMARK    7  A    between atoms: CA   and  CB  
REMARK    8  A    between atoms: CB   and  CG  
REMARK       I    between atoms: CG   and  ND2 
ROOT
ATOM     21  CA  ASN A 142      -7.978  15.712  62.559  1.00 43.18     0.185 C 
ENDROOT
BRANCH  21  22
ATOM     22  CB  ASN A 142      -6.512  15.609  62.983  1.00 38.76     0.137 C 
BRANCH  22  23
ATOM     23  CG  ASN A 142      -6.334  15.641  64.489  1.00 50.71     0.217 C 
ATOM     24  ND2 ASN A 142      -5.086  15.711  64.936  1.00 55.08    -0.370 N 
ATOM     25 2HD2 ASN A 142      -4.279  15.741  64.311  1.00  0.00     0.159 HD
ATOM     26 1HD2 ASN A 142      -4.966  15.733  65.949  1.00  0.00     0.159 HD
ATOM     27  OD1 ASN A 142      -7.306  15.605  65.243  1.00 51.97    -0.274 OA
ENDBRANCH  22  23
ENDBRANCH  21  22
END_RES ASN A 142
BEGIN_RES LEU A  27
REMARK  2 active torsions:
REMARK  status: ('A' for Active; 'I' for Inactive)
REMARK    9  A    between atoms: CA   and  CB  
REMARK   10  A    between atoms: CB   and  CG  
ROOT
ATOM     28  CA  LEU A  27     -11.471  23.771  64.549  1.00 37.04     0.177 C 
ENDROOT
BRANCH  28  29
ATOM     29  CB  LEU A  27     -12.225  22.902  65.570  1.00 37.70     0.038 C 
BRANCH  29  30
ATOM     30  CG  LEU A  27     -12.610  23.437  66.949  1.00 36.32    -0.020 C 
ATOM     31  CD1 LEU A  27     -13.697  24.496  66.855  1.00 32.79     0.009 C 
ATOM     32  CD2 LEU A  27     -13.070  22.282  67.826  1.00 31.17     0.009 C 
ENDBRANCH  29  30
ENDBRANCH  28  29
END_RES LEU A  27
BEGIN_RES MET A  49
REMARK  3 active torsions:
REMARK  status: ('A' for Active; 'I' for Inactive)
REMARK   11  A    between atoms: CA   and  CB  
REMARK   12  A    between atoms: CB   and  CG  
REMARK   13  A    between atoms: CG   and  SD  
ROOT
ATOM     33  CA  MET A  49      -9.418  15.600  76.823  1.00 61.58     0.177 C 
ENDROOT
BRANCH  33  34
ATOM     34  CB  MET A  49      -8.930  15.410  75.386  1.00 62.15     0.045 C 
BRANCH  34  35
ATOM     35  CG  MET A  49      -9.667  16.273  74.374  1.00 60.24     0.076 C 
BRANCH  35  36
ATOM     36  SD  MET A  49     -11.224  16.933  74.998  1.00 77.15    -0.173 SA
ATOM     37  CE  MET A  49     -12.367  15.664  74.455  1.00 60.34     0.089 C 
ENDBRANCH  35  36
ENDBRANCH  34  35
ENDBRANCH  33  34
END_RES MET A  49
BEGIN_RES GLU A 166
REMARK  3 active torsions:
REMARK  status: ('A' for Active; 'I' for Inactive)
REMARK   14  A    between atoms: CA   and  CB  
REMARK   15  A    between atoms: CB   and  CG  
REMARK   16  A    between atoms: CG   and  CD  
ROOT
ATOM     38  CA  GLU A 166     -14.746   9.219  66.167  1.00 28.52     0.177 C 
ENDROOT
BRANCH  38  39
ATOM     39  CB  GLU A 166     -13.578   9.064  65.189  1.00 29.90     0.045 C 
BRANCH  39  40
ATOM     40  CG  GLU A 166     -13.621   7.829  64.310  1.00 36.08     0.116 C 
BRANCH  40  41
ATOM     41  CD  GLU A 166     -12.447   7.774  63.350  1.00 45.17     0.172 C 
ATOM     42  OE2 GLU A 166     -11.295   7.917  63.810  1.00 40.54    -0.648 OA
ATOM     43  OE1 GLU A 166     -12.675   7.577  62.136  1.00 50.70    -0.648 OA
ENDBRANCH  40  41
ENDBRANCH  39  40
ENDBRANCH  38  39
END_RES GLU A 166
BEGIN_RES HIS A 163
REMARK  2 active torsions:
REMARK  status: ('A' for Active; 'I' for Inactive)
REMARK   17  A    between atoms: CA   and  CB  
REMARK   18  A    between atoms: CB   and  CG  
ROOT
ATOM     44  CA  HIS A 163     -19.055  16.637  64.100  1.00 27.27     0.182 C 
ENDROOT
BRANCH  44  45
ATOM     45  CB  HIS A 163     -18.129  16.377  62.914  1.00 26.00     0.093 C 
BRANCH  45  46
ATOM     46  CG  HIS A 163     -17.101  15.324  63.180  1.00 26.66     0.028 A 
ATOM     47  ND1 HIS A 163     -15.753  15.602  63.247  1.00 26.97    -0.354 N 
ATOM     48  CE1 HIS A 163     -15.086  14.487  63.487  1.00 30.44     0.180 A 
ATOM     49  HD1 HIS A 163     -15.335  16.525  63.131  1.00  0.00     0.166 HD
ATOM     50  NE2 HIS A 163     -15.954  13.494  63.572  1.00 30.00    -0.360 N 
ATOM     51  CD2 HIS A 163     -17.221  13.991  63.384  1.00 29.24     0.114 A 
ATOM     52  HE2 HIS A 163     -15.720  12.517  63.750  1.00  0.00     0.166 HD
ENDBRANCH  45  46
ENDBRANCH  44  45
END_RES HIS A 163
BEGIN_RES HIS A 172
REMARK  2 active torsions:
REMARK  status: ('A' for Active; 'I' for Inactive)
REMARK   19  A    between atoms: CA   and  CB  
REMARK   20  A    between atoms: CB   and  CG  
ROOT
ATOM     53  CA  HIS A 172     -18.444   9.111  64.049  1.00 29.85     0.182 C 
ENDROOT
BRANCH  53  54
ATOM     54  CB  HIS A 172     -18.188  10.085  62.898  1.00 26.76     0.093 C 
BRANCH  54  55
ATOM     55  CG  HIS A 172     -16.882   9.858  62.203  1.00 28.76     0.028 A 
ATOM     56  CD2 HIS A 172     -15.620  10.217  62.538  1.00 29.36     0.114 A 
ATOM     57  NE2 HIS A 172     -14.789   9.746  61.551  1.00 33.77    -0.360 N 
ATOM     58  CE1 HIS A 172     -15.514   9.117  60.643  1.00 32.44     0.180 A 
ATOM     59  HE2 HIS A 172     -13.776   9.864  61.523  1.00  0.00     0.166 HD
ATOM     60  ND1 HIS A 172     -16.781   9.166  61.015  1.00 29.32    -0.354 N 
ATOM     61  HD1 HIS A 172     -17.563   8.757  60.503  1.00  0.00     0.166 HD
ENDBRANCH  54  55
ENDBRANCH  53  54
END_RES HIS A 172
BEGIN_RES THR A  26
REMARK  2 active torsions:
REMARK  status: ('A' for Active; 'I' for Inactive)
REMARK   21  A    between atoms: CA   and  CB  
REMARK   22  A    between atoms: CB   and  OG1 
ROOT
ATOM     62  CA  THR A  26      -8.224  25.031  66.060  1.00 43.98     0.205 C 
ENDROOT
BRANCH  62  63
ATOM     63  CB  THR A  26      -7.184  25.490  65.034  1.00 45.90     0.146 C 
ATOM     64  CG2 THR A  26      -7.853  26.053  63.778  1.00 47.20     0.042 C 
BRANCH  63  65
ATOM     65  OG1 THR A  26      -6.335  26.486  65.615  1.00 50.51    -0.393 OA
ATOM     66  HG1 THR A  26      -5.569  26.616  65.069  1.00  0.00     0.210 HD
ENDBRANCH  63  65
ENDBRANCH  62  63
END_RES THR A  26
ENDMDL
