MODEL 1
REMARK VINA RESULT:      -6.9      0.000      0.000
REMARK  10 active torsions:
REMARK  status: ('A' for Active; 'I' for Inactive)
REMARK    1  A    between atoms: C2_2  and  O1_3 
REMARK    2  A    between atoms: C2_2  and  C4_5 
REMARK    3  A    between atoms: C6_8  and  C7_9 
REMARK    4  A    between atoms: C7_9  and  C9_11 
REMARK    5  A    between atoms: C9_11  and  C10_12 
REMARK    6  A    between atoms: C10_12  and  C11_13 
REMARK    7  A    between atoms: C13_16  and  C14_17 
REMARK    8  A    between atoms: C14_17  and  C15_18 
REMARK    9  A    between atoms: C15_18  and  O3_20 
REMARK   10  A    between atoms: C16_21  and  O4_22 
ROOT
HETATM    1  C1  UNL     1      -6.310  20.966  66.176  1.00  0.00     0.052 C 
HETATM    2  C2  UNL     1      -6.869  19.788  66.227  1.00  0.00     0.073 C 
ENDROOT
BRANCH   2   3
HETATM    3  O1  UNL     1      -6.834  18.984  65.085  1.00  0.00    -0.356 OA
HETATM    4  C3  UNL     1      -5.804  19.061  64.122  1.00  0.00     0.210 C 
ENDBRANCH   2   3
BRANCH   2   5
HETATM    5  C4  UNL     1      -7.520  19.273  67.405  1.00  0.00     0.052 A 
HETATM    6  C5  UNL     1      -6.858  18.498  68.307  1.00  0.00     0.134 A 
HETATM    7  N1  UNL     1      -7.456  17.999  69.431  1.00  0.00    -0.264 NA
HETATM    8  C6  UNL     1      -8.740  18.247  69.709  1.00  0.00     0.041 A 
HETATM    9  C18 UNL     1      -9.436  19.027  68.819  1.00  0.00     0.070 A 
HETATM   10  C19 UNL     1      -8.860  19.546  67.675  1.00  0.00     0.132 A 
HETATM   11  F1  UNL     1      -9.527  20.314  66.787  1.00  0.00    -0.205 F 
BRANCH   8  12
HETATM   12  C7  UNL     1      -9.369  17.711  70.906  1.00  0.00     0.034 C 
HETATM   13  C8  UNL     1      -9.709  18.808  71.922  1.00  0.00     0.016 C 
BRANCH  12  14
HETATM   14  C9  UNL     1     -10.679  16.975  70.599  1.00  0.00     0.011 C 
BRANCH  14  15
HETATM   15  C10 UNL     1     -10.371  15.518  70.626  1.00  0.00     0.007 C 
BRANCH  15  16
HETATM   16  C11 UNL     1     -10.550  14.794  69.341  1.00  0.00     0.016 C 
HETATM   17  C12 UNL     1     -11.959  14.850  68.803  1.00  0.00     0.275 C 
HETATM   18  N2  UNL     1     -12.001  14.505  67.410  1.00  0.00     0.091 N 
HETATM   19  C13 UNL     1     -11.231  13.344  67.062  1.00  0.00     0.258 C 
HETATM   20  H18 UNL     1     -11.693  15.286  66.786  1.00  0.00     0.316 HD
HETATM   21  C16 UNL     1     -10.661  12.590  68.205  1.00  0.00     0.152 C 
HETATM   22  C17 UNL     1     -10.109  13.378  69.332  1.00  0.00     0.040 C 
BRANCH  19  23
HETATM   23  C14 UNL     1     -10.206  13.659  65.985  1.00  0.00     0.148 C 
BRANCH  23  24
HETATM   24  C15 UNL     1     -10.665  14.671  65.037  1.00  0.00     0.141 C 
HETATM   25  O2  UNL     1     -10.206  15.823  65.104  1.00  0.00    -0.650 OA
BRANCH  24  26
HETATM   26  O3  UNL     1     -11.604  14.377  64.063  1.00  0.00    -0.776 OA
HETATM   27  H22 UNL     1     -11.289  13.988  63.185  1.00  0.00     0.167 HD
ENDBRANCH  24  26
ENDBRANCH  23  24
ENDBRANCH  19  23
BRANCH  21  28
HETATM   28  O4  UNL     1     -11.593  11.619  68.645  1.00  0.00    -0.393 OA
HETATM   29  H24 UNL     1     -12.440  12.110  68.783  1.00  0.00     0.210 HD
ENDBRANCH  21  28
ENDBRANCH  15  16
ENDBRANCH  14  15
ENDBRANCH  12  14
ENDBRANCH   8  12
ENDBRANCH   2   5
TORSDOF 10
BEGIN_RES HIS A  41
REMARK  2 active torsions:
REMARK  status: ('A' for Active; 'I' for Inactive)
REMARK    1  A    between atoms: CA   and  CB  
REMARK    2  A    between atoms: CB   and  CG  
ROOT
ATOM      1  CA  HIS A  41     -13.820  21.037  73.265  1.00 38.89     0.182 C 
ENDROOT
BRANCH   1   2
ATOM      2  CB  HIS A  41     -13.705  19.545  72.937  1.00 42.38     0.093 C 
BRANCH   2   3
ATOM      3  CG  HIS A  41     -14.008  19.210  71.510  1.00 37.90     0.028 A 
ATOM      4  CD2 HIS A  41     -15.056  18.564  70.947  1.00 37.33     0.114 A 
ATOM      5  NE2 HIS A  41     -14.833  18.536  69.592  1.00 41.88    -0.360 N 
ATOM      6  CE1 HIS A  41     -13.692  19.149  69.332  1.00 41.55     0.180 A 
ATOM      7  HE2 HIS A  41     -15.449  18.111  68.899  1.00  0.00     0.166 HD
ATOM      8  ND1 HIS A  41     -13.174  19.568  70.472  1.00 36.57    -0.354 N 
ATOM      9  HD1 HIS A  41     -12.296  20.076  70.569  1.00  0.00     0.166 HD
ENDBRANCH   2   3
ENDBRANCH   1   2
END_RES HIS A  41
BEGIN_RES CYS A 145
REMARK  1 active torsions:
REMARK  status: ('A' for Active; 'I' for Inactive)
REMARK    3  A    between atoms: CA   and  CB  
ROOT
ATOM     10  CA  CYS A 145     -14.607  19.162  64.101  1.00 29.71     0.186 C 
ENDROOT
BRANCH  10  11
ATOM     11  CB  CYS A 145     -14.100  19.110  65.541  1.00 31.75     0.120 C 
ATOM     12  SG  CYS A 145     -13.514  17.482  66.043  1.00 39.68    -0.095 SA
ENDBRANCH  10  11
END_RES CYS A 145
BEGIN_RES GLN A 189
REMARK  3 active torsions:
REMARK  status: ('A' for Active; 'I' for Inactive)
REMARK    4  A    between atoms: CA   and  CB  
REMARK    5  A    between atoms: CB   and  CG  
REMARK    6  A    between atoms: CG   and  CD  
REMARK       I    between atoms: CD   and  NE2 
ROOT
ATOM     13  CA  GLN A 189     -11.641  10.633  75.105  1.00 38.41     0.177 C 
ENDROOT
BRANCH  13  14
ATOM     14  CB  GLN A 189     -10.259  11.109  74.679  1.00 37.59     0.044 C 
BRANCH  14  15
ATOM     15  CG  GLN A 189     -10.043  11.076  73.175  1.00 45.60     0.105 C 
BRANCH  15  16
ATOM     16  CD  GLN A 189     -11.229  11.613  72.400  1.00 47.27     0.215 C 
ATOM     17  NE2 GLN A 189     -11.758  10.803  71.489  1.00 44.45    -0.370 N 
ATOM     18 2HE2 GLN A 189     -11.396   9.867  71.308  1.00  0.00     0.159 HD
ATOM     19 1HE2 GLN A 189     -12.557  11.165  70.967  1.00  0.00     0.159 HD
ATOM     20  OE1 GLN A 189     -11.666  12.743  72.619  1.00 41.09    -0.274 OA
ENDBRANCH  15  16
ENDBRANCH  14  15
ENDBRANCH  13  14
END_RES GLN A 189
BEGIN_RES ASN A 142
REMARK  2 active torsions:
REMARK  status: ('A' for Active; 'I' for Inactive)
REMARK    7  A    between atoms: CA   and  CB  
REMARK    8  A    between atoms: CB   and  CG  
REMARK       I    between atoms: CG   and  ND2 
ROOT
ATOM     21  CA  ASN A 142      -7.978  15.712  62.559  1.00 43.18     0.185 C 
ENDROOT
BRANCH  21  22
ATOM     22  CB  ASN A 142      -6.512  15.609  62.983  1.00 38.76     0.137 C 
BRANCH  22  23
ATOM     23  CG  ASN A 142      -6.350  15.277  64.454  1.00 50.71     0.217 C 
ATOM     24  ND2 ASN A 142      -7.154  15.914  65.296  1.00 55.08    -0.370 N 
ATOM     25 2HD2 ASN A 142      -7.849  16.594  64.985  1.00  0.00     0.159 HD
ATOM     26 1HD2 ASN A 142      -7.045  15.692  66.286  1.00  0.00     0.159 HD
ATOM     27  OD1 ASN A 142      -5.512  14.458  64.830  1.00 51.97    -0.274 OA
ENDBRANCH  22  23
ENDBRANCH  21  22
END_RES ASN A 142
BEGIN_RES LEU A  27
REMARK  2 active torsions:
REMARK  status: ('A' for Active; 'I' for Inactive)
REMARK    9  A    between atoms: CA   and  CB  
REMARK   10  A    between atoms: CB   and  CG  
ROOT
ATOM     28  CA  LEU A  27     -11.471  23.771  64.549  1.00 37.04     0.177 C 
ENDROOT
BRANCH  28  29
ATOM     29  CB  LEU A  27     -12.225  22.902  65.570  1.00 37.70     0.038 C 
BRANCH  29  30
ATOM     30  CG  LEU A  27     -12.496  23.389  66.993  1.00 36.32    -0.020 C 
ATOM     31  CD1 LEU A  27     -13.867  24.036  67.112  1.00 32.79     0.009 C 
ATOM     32  CD2 LEU A  27     -12.377  22.218  67.957  1.00 31.17     0.009 C 
ENDBRANCH  29  30
ENDBRANCH  28  29
END_RES LEU A  27
BEGIN_RES MET A  49
REMARK  3 active torsions:
REMARK  status: ('A' for Active; 'I' for Inactive)
REMARK   11  A    between atoms: CA   and  CB  
REMARK   12  A    between atoms: CB   and  CG  
REMARK   13  A    between atoms: CG   and  SD  
ROOT
ATOM     33  CA  MET A  49      -9.418  15.600  76.823  1.00 61.58     0.177 C 
ENDROOT
BRANCH  33  34
ATOM     34  CB  MET A  49      -8.930  15.410  75.386  1.00 62.15     0.045 C 
BRANCH  34  35
ATOM     35  CG  MET A  49      -9.693  16.243  74.368  1.00 60.24     0.076 C 
BRANCH  35  36
ATOM     36  SD  MET A  49     -11.238  16.916  75.011  1.00 77.15    -0.173 SA
ATOM     37  CE  MET A  49     -12.414  15.726  74.369  1.00 60.34     0.089 C 
ENDBRANCH  35  36
ENDBRANCH  34  35
ENDBRANCH  33  34
END_RES MET A  49
BEGIN_RES GLU A 166
REMARK  3 active torsions:
REMARK  status: ('A' for Active; 'I' for Inactive)
REMARK   14  A    between atoms: CA   and  CB  
REMARK   15  A    between atoms: CB   and  CG  
REMARK   16  A    between atoms: CG   and  CD  
ROOT
ATOM     38  CA  GLU A 166     -14.746   9.219  66.167  1.00 28.52     0.177 C 
ENDROOT
BRANCH  38  39
ATOM     39  CB  GLU A 166     -13.578   9.064  65.189  1.00 29.90     0.045 C 
BRANCH  39  40
ATOM     40  CG  GLU A 166     -12.413  10.010  65.407  1.00 36.08     0.116 C 
BRANCH  40  41
ATOM     41  CD  GLU A 166     -12.351  11.090  64.342  1.00 45.17     0.172 C 
ATOM     42  OE2 GLU A 166     -13.348  11.826  64.183  1.00 40.54    -0.648 OA
ATOM     43  OE1 GLU A 166     -11.303  11.210  63.672  1.00 50.70    -0.648 OA
ENDBRANCH  40  41
ENDBRANCH  39  40
ENDBRANCH  38  39
END_RES GLU A 166
BEGIN_RES HIS A 163
REMARK  2 active torsions:
REMARK  status: ('A' for Active; 'I' for Inactive)
REMARK   17  A    between atoms: CA   and  CB  
REMARK   18  A    between atoms: CB   and  CG  
ROOT
ATOM     44  CA  HIS A 163     -19.055  16.637  64.100  1.00 27.27     0.182 C 
ENDROOT
BRANCH  44  45
ATOM     45  CB  HIS A 163     -18.129  16.377  62.914  1.00 26.00     0.093 C 
BRANCH  45  46
ATOM     46  CG  HIS A 163     -17.087  15.339  63.187  1.00 26.66     0.028 A 
ATOM     47  ND1 HIS A 163     -15.743  15.635  63.255  1.00 26.97    -0.354 N 
ATOM     48  CE1 HIS A 163     -15.062  14.530  63.501  1.00 30.44     0.180 A 
ATOM     49  HD1 HIS A 163     -15.337  16.563  63.134  1.00  0.00     0.166 HD
ATOM     50  NE2 HIS A 163     -15.917  13.527  63.591  1.00 30.00    -0.360 N 
ATOM     51  CD2 HIS A 163     -17.190  14.005  63.398  1.00 29.24     0.114 A 
ATOM     52  HE2 HIS A 163     -15.671  12.554  63.774  1.00  0.00     0.166 HD
ENDBRANCH  45  46
ENDBRANCH  44  45
END_RES HIS A 163
BEGIN_RES HIS A 172
REMARK  2 active torsions:
REMARK  status: ('A' for Active; 'I' for Inactive)
REMARK   19  A    between atoms: CA   and  CB  
REMARK   20  A    between atoms: CB   and  CG  
ROOT
ATOM     53  CA  HIS A 172     -18.444   9.111  64.049  1.00 29.85     0.182 C 
ENDROOT
BRANCH  53  54
ATOM     54  CB  HIS A 172     -18.188  10.085  62.898  1.00 26.76     0.093 C 
BRANCH  54  55
ATOM     55  CG  HIS A 172     -16.921   9.807  62.151  1.00 28.76     0.028 A 
ATOM     56  CD2 HIS A 172     -16.701   9.176  60.974  1.00 29.36     0.114 A 
ATOM     57  NE2 HIS A 172     -15.347   9.209  60.743  1.00 33.77    -0.360 N 
ATOM     58  CE1 HIS A 172     -14.757   9.843  61.742  1.00 32.44     0.180 A 
ATOM     59  HE2 HIS A 172     -14.874   8.808  59.933  1.00  0.00     0.166 HD
ATOM     60  ND1 HIS A 172     -15.685  10.219  62.604  1.00 29.32    -0.354 N 
ATOM     61  HD1 HIS A 172     -15.515  10.732  63.468  1.00  0.00     0.166 HD
ENDBRANCH  54  55
ENDBRANCH  53  54
END_RES HIS A 172
BEGIN_RES THR A  26
REMARK  2 active torsions:
REMARK  status: ('A' for Active; 'I' for Inactive)
REMARK   21  A    between atoms: CA   and  CB  
REMARK   22  A    between atoms: CB   and  OG1 
ROOT
ATOM     62  CA  THR A  26      -8.224  25.031  66.060  1.00 43.98     0.205 C 
ENDROOT
BRANCH  62  63
ATOM     63  CB  THR A  26      -7.184  25.490  65.034  1.00 45.90     0.146 C 
ATOM     64  CG2 THR A  26      -7.853  26.081  63.791  1.00 47.20     0.042 C 
BRANCH  63  65
ATOM     65  OG1 THR A  26      -6.317  26.464  65.625  1.00 50.51    -0.393 OA
ATOM     66  HG1 THR A  26      -6.252  27.224  65.058  1.00  0.00     0.210 HD
ENDBRANCH  63  65
ENDBRANCH  62  63
END_RES THR A  26
ENDMDL
MODEL 2
REMARK VINA RESULT:      -6.7      1.479      2.316
REMARK  10 active torsions:
REMARK  status: ('A' for Active; 'I' for Inactive)
REMARK    1  A    between atoms: C2_2  and  O1_3 
REMARK    2  A    between atoms: C2_2  and  C4_5 
REMARK    3  A    between atoms: C6_8  and  C7_9 
REMARK    4  A    between atoms: C7_9  and  C9_11 
REMARK    5  A    between atoms: C9_11  and  C10_12 
REMARK    6  A    between atoms: C10_12  and  C11_13 
REMARK    7  A    between atoms: C13_16  and  C14_17 
REMARK    8  A    between atoms: C14_17  and  C15_18 
REMARK    9  A    between atoms: C15_18  and  O3_20 
REMARK   10  A    between atoms: C16_21  and  O4_22 
ROOT
HETATM    1  C1  UNL     1      -7.266  19.884  65.565  1.00  0.00     0.052 C 
HETATM    2  C2  UNL     1      -7.384  20.038  66.855  1.00  0.00     0.073 C 
ENDROOT
BRANCH   2   3
HETATM    3  O1  UNL     1      -6.824  21.173  67.445  1.00  0.00    -0.356 OA
HETATM    4  C3  UNL     1      -5.525  21.188  68.001  1.00  0.00     0.210 C 
ENDBRANCH   2   3
BRANCH   2   5
HETATM    5  C4  UNL     1      -8.067  19.094  67.704  1.00  0.00     0.052 A 
HETATM    6  C5  UNL     1      -7.512  17.897  68.035  1.00  0.00     0.134 A 
HETATM    7  N1  UNL     1      -8.142  16.986  68.838  1.00  0.00    -0.264 NA
HETATM    8  C6  UNL     1      -9.354  17.225  69.349  1.00  0.00     0.041 A 
HETATM    9  C18 UNL     1      -9.943  18.426  69.033  1.00  0.00     0.070 A 
HETATM   10  C19 UNL     1      -9.332  19.365  68.226  1.00  0.00     0.132 A 
HETATM   11  F1  UNL     1      -9.894  20.550  67.903  1.00  0.00    -0.205 F 
BRANCH   8  12
HETATM   12  C7  UNL     1     -10.018  16.252  70.201  1.00  0.00     0.034 C 
HETATM   13  C8  UNL     1     -11.235  16.847  70.920  1.00  0.00     0.016 C 
BRANCH  12  14
HETATM   14  C9  UNL     1     -10.524  15.034  69.416  1.00  0.00     0.011 C 
BRANCH  14  15
HETATM   15  C10 UNL     1     -11.523  15.539  68.433  1.00  0.00     0.007 C 
BRANCH  15  16
HETATM   16  C11 UNL     1     -11.460  14.937  67.078  1.00  0.00     0.016 C 
HETATM   17  C12 UNL     1     -10.068  14.894  66.495  1.00  0.00     0.275 C 
HETATM   18  N2  UNL     1      -9.986  13.969  65.401  1.00  0.00     0.091 N 
HETATM   19  C13 UNL     1     -11.068  14.063  64.461  1.00  0.00     0.258 C 
HETATM   20  H18 UNL     1      -9.925  12.972  65.713  1.00  0.00     0.316 HD
HETATM   21  C16 UNL     1     -11.996  15.200  64.669  1.00  0.00     0.152 C 
HETATM   22  C17 UNL     1     -12.365  15.532  66.065  1.00  0.00     0.040 C 
BRANCH  19  23
HETATM   23  C14 UNL     1     -11.784  12.731  64.302  1.00  0.00     0.148 C 
BRANCH  23  24
HETATM   24  C15 UNL     1     -11.303  11.709  65.230  1.00  0.00     0.141 C 
HETATM   25  O2  UNL     1     -11.768  11.663  66.380  1.00  0.00    -0.650 OA
BRANCH  24  26
HETATM   26  O3  UNL     1     -10.338  10.789  64.857  1.00  0.00    -0.776 OA
HETATM   27  H22 UNL     1     -10.216   9.958  65.418  1.00  0.00     0.167 HD
ENDBRANCH  24  26
ENDBRANCH  23  24
ENDBRANCH  19  23
BRANCH  21  28
HETATM   28  O4  UNL     1     -11.523  16.334  63.963  1.00  0.00    -0.393 OA
HETATM   29  H24 UNL     1     -11.835  17.116  64.481  1.00  0.00     0.210 HD
ENDBRANCH  21  28
ENDBRANCH  15  16
ENDBRANCH  14  15
ENDBRANCH  12  14
ENDBRANCH   8  12
ENDBRANCH   2   5
TORSDOF 10
BEGIN_RES HIS A  41
REMARK  2 active torsions:
REMARK  status: ('A' for Active; 'I' for Inactive)
REMARK    1  A    between atoms: CA   and  CB  
REMARK    2  A    between atoms: CB   and  CG  
ROOT
ATOM      1  CA  HIS A  41     -13.820  21.037  73.265  1.00 38.89     0.182 C 
ENDROOT
BRANCH   1   2
ATOM      2  CB  HIS A  41     -13.705  19.545  72.937  1.00 42.38     0.093 C 
BRANCH   2   3
ATOM      3  CG  HIS A  41     -14.087  19.199  71.532  1.00 37.90     0.028 A 
ATOM      4  CD2 HIS A  41     -13.531  19.539  70.345  1.00 37.33     0.114 A 
ATOM      5  NE2 HIS A  41     -14.281  18.942  69.362  1.00 41.88    -0.360 N 
ATOM      6  CE1 HIS A  41     -15.259  18.254  69.925  1.00 41.55     0.180 A 
ATOM      7  HE2 HIS A  41     -14.110  19.017  68.359  1.00  0.00     0.166 HD
ATOM      8  ND1 HIS A  41     -15.163  18.391  71.234  1.00 36.57    -0.354 N 
ATOM      9  HD1 HIS A  41     -15.788  17.964  71.919  1.00  0.00     0.166 HD
ENDBRANCH   2   3
ENDBRANCH   1   2
END_RES HIS A  41
BEGIN_RES CYS A 145
REMARK  1 active torsions:
REMARK  status: ('A' for Active; 'I' for Inactive)
REMARK    3  A    between atoms: CA   and  CB  
ROOT
ATOM     10  CA  CYS A 145     -14.607  19.162  64.101  1.00 29.71     0.186 C 
ENDROOT
BRANCH  10  11
ATOM     11  CB  CYS A 145     -14.100  19.110  65.541  1.00 31.75     0.120 C 
ATOM     12  SG  CYS A 145     -12.310  19.256  65.683  1.00 39.68    -0.095 SA
ENDBRANCH  10  11
END_RES CYS A 145
BEGIN_RES GLN A 189
REMARK  3 active torsions:
REMARK  status: ('A' for Active; 'I' for Inactive)
REMARK    4  A    between atoms: CA   and  CB  
REMARK    5  A    between atoms: CB   and  CG  
REMARK    6  A    between atoms: CG   and  CD  
REMARK       I    between atoms: CD   and  NE2 
ROOT
ATOM     13  CA  GLN A 189     -11.641  10.633  75.105  1.00 38.41     0.177 C 
ENDROOT
BRANCH  13  14
ATOM     14  CB  GLN A 189     -10.259  11.109  74.679  1.00 37.59     0.044 C 
BRANCH  14  15
ATOM     15  CG  GLN A 189     -10.048  11.089  73.174  1.00 45.60     0.105 C 
BRANCH  15  16
ATOM     16  CD  GLN A 189     -10.728  12.247  72.471  1.00 47.27     0.215 C 
ATOM     17  NE2 GLN A 189     -11.822  11.958  71.775  1.00 44.45    -0.370 N 
ATOM     18 2HE2 GLN A 189     -12.196  11.012  71.706  1.00  0.00     0.159 HD
ATOM     19 1HE2 GLN A 189     -12.279  12.737  71.302  1.00  0.00     0.159 HD
ATOM     20  OE1 GLN A 189     -10.275  13.389  72.554  1.00 41.09    -0.274 OA
ENDBRANCH  15  16
ENDBRANCH  14  15
ENDBRANCH  13  14
END_RES GLN A 189
BEGIN_RES ASN A 142
REMARK  2 active torsions:
REMARK  status: ('A' for Active; 'I' for Inactive)
REMARK    7  A    between atoms: CA   and  CB  
REMARK    8  A    between atoms: CB   and  CG  
REMARK       I    between atoms: CG   and  ND2 
ROOT
ATOM     21  CA  ASN A 142      -7.978  15.712  62.559  1.00 43.18     0.185 C 
ENDROOT
BRANCH  21  22
ATOM     22  CB  ASN A 142      -6.512  15.609  62.983  1.00 38.76     0.137 C 
BRANCH  22  23
ATOM     23  CG  ASN A 142      -6.344  15.489  64.486  1.00 50.71     0.217 C 
ATOM     24  ND2 ASN A 142      -5.582  16.406  65.070  1.00 55.08    -0.370 N 
ATOM     25 2HD2 ASN A 142      -5.127  17.156  64.549  1.00  0.00     0.159 HD
ATOM     26 1HD2 ASN A 142      -5.468  16.326  66.081  1.00  0.00     0.159 HD
ATOM     27  OD1 ASN A 142      -6.892  14.585  65.115  1.00 51.97    -0.274 OA
ENDBRANCH  22  23
ENDBRANCH  21  22
END_RES ASN A 142
BEGIN_RES LEU A  27
REMARK  2 active torsions:
REMARK  status: ('A' for Active; 'I' for Inactive)
REMARK    9  A    between atoms: CA   and  CB  
REMARK   10  A    between atoms: CB   and  CG  
ROOT
ATOM     28  CA  LEU A  27     -11.471  23.771  64.549  1.00 37.04     0.177 C 
ENDROOT
BRANCH  28  29
ATOM     29  CB  LEU A  27     -12.225  22.902  65.570  1.00 37.70     0.038 C 
BRANCH  29  30
ATOM     30  CG  LEU A  27     -12.568  23.420  66.967  1.00 36.32    -0.020 C 
ATOM     31  CD1 LEU A  27     -13.746  24.380  66.934  1.00 32.79     0.009 C 
ATOM     32  CD2 LEU A  27     -12.869  22.242  67.881  1.00 31.17     0.009 C 
ENDBRANCH  29  30
ENDBRANCH  28  29
END_RES LEU A  27
BEGIN_RES MET A  49
REMARK  3 active torsions:
REMARK  status: ('A' for Active; 'I' for Inactive)
REMARK   11  A    between atoms: CA   and  CB  
REMARK   12  A    between atoms: CB   and  CG  
REMARK   13  A    between atoms: CG   and  SD  
ROOT
ATOM     33  CA  MET A  49      -9.418  15.600  76.823  1.00 61.58     0.177 C 
ENDROOT
BRANCH  33  34
ATOM     34  CB  MET A  49      -8.930  15.410  75.386  1.00 62.15     0.045 C 
BRANCH  34  35
ATOM     35  CG  MET A  49      -9.653  16.287  74.376  1.00 60.24     0.076 C 
BRANCH  35  36
ATOM     36  SD  MET A  49     -11.226  16.926  74.984  1.00 77.15    -0.173 SA
ATOM     37  CE  MET A  49     -12.347  15.645  74.425  1.00 60.34     0.089 C 
ENDBRANCH  35  36
ENDBRANCH  34  35
ENDBRANCH  33  34
END_RES MET A  49
BEGIN_RES GLU A 166
REMARK  3 active torsions:
REMARK  status: ('A' for Active; 'I' for Inactive)
REMARK   14  A    between atoms: CA   and  CB  
REMARK   15  A    between atoms: CB   and  CG  
REMARK   16  A    between atoms: CG   and  CD  
ROOT
ATOM     38  CA  GLU A 166     -14.746   9.219  66.167  1.00 28.52     0.177 C 
ENDROOT
BRANCH  38  39
ATOM     39  CB  GLU A 166     -13.578   9.064  65.189  1.00 29.90     0.045 C 
BRANCH  39  40
ATOM     40  CG  GLU A 166     -13.602   7.811  64.335  1.00 36.08     0.116 C 
BRANCH  40  41
ATOM     41  CD  GLU A 166     -12.483   7.800  63.311  1.00 45.17     0.172 C 
ATOM     42  OE2 GLU A 166     -11.342   8.158  63.673  1.00 40.54    -0.648 OA
ATOM     43  OE1 GLU A 166     -12.740   7.423  62.147  1.00 50.70    -0.648 OA
ENDBRANCH  40  41
ENDBRANCH  39  40
ENDBRANCH  38  39
END_RES GLU A 166
BEGIN_RES HIS A 163
REMARK  2 active torsions:
REMARK  status: ('A' for Active; 'I' for Inactive)
REMARK   17  A    between atoms: CA   and  CB  
REMARK   18  A    between atoms: CB   and  CG  
ROOT
ATOM     44  CA  HIS A 163     -19.055  16.637  64.100  1.00 27.27     0.182 C 
ENDROOT
BRANCH  44  45
ATOM     45  CB  HIS A 163     -18.129  16.377  62.914  1.00 26.00     0.093 C 
BRANCH  45  46
ATOM     46  CG  HIS A 163     -17.140  15.281  63.159  1.00 26.66     0.028 A 
ATOM     47  ND1 HIS A 163     -15.782  15.506  63.212  1.00 26.97    -0.354 N 
ATOM     48  CE1 HIS A 163     -15.157  14.363  63.434  1.00 30.44     0.180 A 
ATOM     49  HD1 HIS A 163     -15.329  16.413  63.099  1.00  0.00     0.166 HD
ATOM     50  NE2 HIS A 163     -16.062  13.404  63.521  1.00 30.00    -0.360 N 
ATOM     51  CD2 HIS A 163     -17.311  13.952  63.352  1.00 29.24     0.114 A 
ATOM     52  HE2 HIS A 163     -15.866  12.417  63.687  1.00  0.00     0.166 HD
ENDBRANCH  45  46
ENDBRANCH  44  45
END_RES HIS A 163
BEGIN_RES HIS A 172
REMARK  2 active torsions:
REMARK  status: ('A' for Active; 'I' for Inactive)
REMARK   19  A    between atoms: CA   and  CB  
REMARK   20  A    between atoms: CB   and  CG  
ROOT
ATOM     53  CA  HIS A 172     -18.444   9.111  64.049  1.00 29.85     0.182 C 
ENDROOT
BRANCH  53  54
ATOM     54  CB  HIS A 172     -18.188  10.085  62.898  1.00 26.76     0.093 C 
BRANCH  54  55
ATOM     55  CG  HIS A 172     -16.881   9.860  62.204  1.00 28.76     0.028 A 
ATOM     56  CD2 HIS A 172     -15.619  10.208  62.547  1.00 29.36     0.114 A 
ATOM     57  NE2 HIS A 172     -14.786   9.745  61.557  1.00 33.77    -0.360 N 
ATOM     58  CE1 HIS A 172     -15.512   9.128  60.640  1.00 32.44     0.180 A 
ATOM     59  HE2 HIS A 172     -13.773   9.858  61.534  1.00  0.00     0.166 HD
ATOM     60  ND1 HIS A 172     -16.780   9.180  61.009  1.00 29.32    -0.354 N 
ATOM     61  HD1 HIS A 172     -17.562   8.781  60.490  1.00  0.00     0.166 HD
ENDBRANCH  54  55
ENDBRANCH  53  54
END_RES HIS A 172
BEGIN_RES THR A  26
REMARK  2 active torsions:
REMARK  status: ('A' for Active; 'I' for Inactive)
REMARK   21  A    between atoms: CA   and  CB  
REMARK   22  A    between atoms: CB   and  OG1 
ROOT
ATOM     62  CA  THR A  26      -8.224  25.031  66.060  1.00 43.98     0.205 C 
ENDROOT
BRANCH  62  63
ATOM     63  CB  THR A  26      -7.184  25.490  65.034  1.00 45.90     0.146 C 
ATOM     64  CG2 THR A  26      -7.853  26.058  63.781  1.00 47.20     0.042 C 
BRANCH  63  65
ATOM     65  OG1 THR A  26      -6.332  26.482  65.617  1.00 50.51    -0.393 OA
ATOM     66  HG1 THR A  26      -6.599  26.649  66.514  1.00  0.00     0.210 HD
ENDBRANCH  63  65
ENDBRANCH  62  63
END_RES THR A  26
ENDMDL
MODEL 3
REMARK VINA RESULT:      -6.7      2.706      5.341
REMARK  10 active torsions:
REMARK  status: ('A' for Active; 'I' for Inactive)
REMARK    1  A    between atoms: C2_2  and  O1_3 
REMARK    2  A    between atoms: C2_2  and  C4_5 
REMARK    3  A    between atoms: C6_8  and  C7_9 
REMARK    4  A    between atoms: C7_9  and  C9_11 
REMARK    5  A    between atoms: C9_11  and  C10_12 
REMARK    6  A    between atoms: C10_12  and  C11_13 
REMARK    7  A    between atoms: C13_16  and  C14_17 
REMARK    8  A    between atoms: C14_17  and  C15_18 
REMARK    9  A    between atoms: C15_18  and  O3_20 
REMARK   10  A    between atoms: C16_21  and  O4_22 
ROOT
HETATM    1  C1  UNL     1     -12.095   8.612  71.927  1.00  0.00     0.052 C 
HETATM    2  C2  UNL     1     -12.992   9.397  71.397  1.00  0.00     0.073 C 
ENDROOT
BRANCH   2   3
HETATM    3  O1  UNL     1     -14.261   8.875  71.130  1.00  0.00    -0.356 OA
HETATM    4  C3  UNL     1     -14.894   7.930  71.968  1.00  0.00     0.210 C 
ENDBRANCH   2   3
BRANCH   2   5
HETATM    5  C4  UNL     1     -12.741  10.779  71.073  1.00  0.00     0.052 A 
HETATM    6  C5  UNL     1     -13.120  11.788  71.904  1.00  0.00     0.134 A 
HETATM    7  N1  UNL     1     -12.892  13.106  71.617  1.00  0.00    -0.264 NA
HETATM    8  C6  UNL     1     -12.278  13.480  70.490  1.00  0.00     0.041 A 
HETATM    9  C18 UNL     1     -11.883  12.485  69.629  1.00  0.00     0.070 A 
HETATM   10  C19 UNL     1     -12.098  11.146  69.891  1.00  0.00     0.132 A 
HETATM   11  F1  UNL     1     -11.719  10.152  69.059  1.00  0.00    -0.205 F 
BRANCH   8  12
HETATM   12  C7  UNL     1     -12.040  14.883  70.191  1.00  0.00     0.034 C 
HETATM   13  C8  UNL     1     -12.140  15.767  71.440  1.00  0.00     0.016 C 
BRANCH  12  14
HETATM   14  C9  UNL     1     -10.650  15.127  69.590  1.00  0.00     0.011 C 
BRANCH  14  15
HETATM   15  C10 UNL     1     -10.843  15.990  68.392  1.00  0.00     0.007 C 
BRANCH  15  16
HETATM   16  C11 UNL     1     -10.984  15.279  67.096  1.00  0.00     0.016 C 
HETATM   17  C12 UNL     1      -9.703  15.204  66.301  1.00  0.00     0.275 C 
HETATM   18  N2  UNL     1      -9.774  14.193  65.286  1.00  0.00     0.091 N 
HETATM   19  C13 UNL     1     -10.995  14.196  64.529  1.00  0.00     0.258 C 
HETATM   20  H18 UNL     1      -9.640  13.226  65.662  1.00  0.00     0.316 HD
HETATM   21  C16 UNL     1     -11.906  15.336  64.792  1.00  0.00     0.152 C 
HETATM   22  C17 UNL     1     -12.054  15.778  66.199  1.00  0.00     0.040 C 
BRANCH  19  23
HETATM   23  C14 UNL     1     -11.694  12.847  64.595  1.00  0.00     0.148 C 
BRANCH  23  24
HETATM   24  C15 UNL     1     -11.319  11.955  63.501  1.00  0.00     0.141 C 
HETATM   25  O2  UNL     1     -10.126  11.865  63.169  1.00  0.00    -0.650 OA
BRANCH  24  26
HETATM   26  O3  UNL     1     -12.264  11.206  62.821  1.00  0.00    -0.776 OA
HETATM   27  H22 UNL     1     -13.031  10.804  63.341  1.00  0.00     0.167 HD
ENDBRANCH  24  26
ENDBRANCH  23  24
ENDBRANCH  19  23
BRANCH  21  28
HETATM   28  O4  UNL     1     -11.580  16.412  63.932  1.00  0.00    -0.393 OA
HETATM   29  H24 UNL     1     -11.332  15.995  63.071  1.00  0.00     0.210 HD
ENDBRANCH  21  28
ENDBRANCH  15  16
ENDBRANCH  14  15
ENDBRANCH  12  14
ENDBRANCH   8  12
ENDBRANCH   2   5
TORSDOF 10
BEGIN_RES HIS A  41
REMARK  2 active torsions:
REMARK  status: ('A' for Active; 'I' for Inactive)
REMARK    1  A    between atoms: CA   and  CB  
REMARK    2  A    between atoms: CB   and  CG  
ROOT
ATOM      1  CA  HIS A  41     -13.820  21.037  73.265  1.00 38.89     0.182 C 
ENDROOT
BRANCH   1   2
ATOM      2  CB  HIS A  41     -13.705  19.545  72.937  1.00 42.38     0.093 C 
BRANCH   2   3
ATOM      3  CG  HIS A  41     -13.924  19.220  71.493  1.00 37.90     0.028 A 
ATOM      4  CD2 HIS A  41     -14.997  18.706  70.845  1.00 37.33     0.114 A 
ATOM      5  NE2 HIS A  41     -14.662  18.618  69.516  1.00 41.88    -0.360 N 
ATOM      6  CE1 HIS A  41     -13.431  19.067  69.352  1.00 41.55     0.180 A 
ATOM      7  HE2 HIS A  41     -15.267  18.262  68.776  1.00  0.00     0.166 HD
ATOM      8  ND1 HIS A  41     -12.963  19.440  70.529  1.00 36.57    -0.354 N 
ATOM      9  HD1 HIS A  41     -12.036  19.830  70.699  1.00  0.00     0.166 HD
ENDBRANCH   2   3
ENDBRANCH   1   2
END_RES HIS A  41
BEGIN_RES CYS A 145
REMARK  1 active torsions:
REMARK  status: ('A' for Active; 'I' for Inactive)
REMARK    3  A    between atoms: CA   and  CB  
ROOT
ATOM     10  CA  CYS A 145     -14.607  19.162  64.101  1.00 29.71     0.186 C 
ENDROOT
BRANCH  10  11
ATOM     11  CB  CYS A 145     -14.100  19.110  65.541  1.00 31.75     0.120 C 
ATOM     12  SG  CYS A 145     -12.319  19.342  65.690  1.00 39.68    -0.095 SA
ENDBRANCH  10  11
END_RES CYS A 145
BEGIN_RES GLN A 189
REMARK  3 active torsions:
REMARK  status: ('A' for Active; 'I' for Inactive)
REMARK    4  A    between atoms: CA   and  CB  
REMARK    5  A    between atoms: CB   and  CG  
REMARK    6  A    between atoms: CG   and  CD  
REMARK       I    between atoms: CD   and  NE2 
ROOT
ATOM     13  CA  GLN A 189     -11.641  10.633  75.105  1.00 38.41     0.177 C 
ENDROOT
BRANCH  13  14
ATOM     14  CB  GLN A 189     -10.259  11.109  74.679  1.00 37.59     0.044 C 
BRANCH  14  15
ATOM     15  CG  GLN A 189      -9.868  10.661  73.280  1.00 45.60     0.105 C 
BRANCH  15  16
ATOM     16  CD  GLN A 189      -9.400  11.809  72.407  1.00 47.27     0.215 C 
ATOM     17  NE2 GLN A 189      -8.744  11.481  71.299  1.00 44.45    -0.370 N 
ATOM     18 2HE2 GLN A 189      -8.555  10.514  71.037  1.00  0.00     0.159 HD
ATOM     19 1HE2 GLN A 189      -8.429  12.253  70.712  1.00  0.00     0.159 HD
ATOM     20  OE1 GLN A 189      -9.628  12.976  72.725  1.00 41.09    -0.274 OA
ENDBRANCH  15  16
ENDBRANCH  14  15
ENDBRANCH  13  14
END_RES GLN A 189
BEGIN_RES ASN A 142
REMARK  2 active torsions:
REMARK  status: ('A' for Active; 'I' for Inactive)
REMARK    7  A    between atoms: CA   and  CB  
REMARK    8  A    between atoms: CB   and  CG  
REMARK       I    between atoms: CG   and  ND2 
ROOT
ATOM     21  CA  ASN A 142      -7.978  15.712  62.559  1.00 43.18     0.185 C 
ENDROOT
BRANCH  21  22
ATOM     22  CB  ASN A 142      -6.512  15.609  62.983  1.00 38.76     0.137 C 
BRANCH  22  23
ATOM     23  CG  ASN A 142      -6.349  15.296  64.458  1.00 50.71     0.217 C 
ATOM     24  ND2 ASN A 142      -5.902  16.282  65.226  1.00 55.08    -0.370 N 
ATOM     25 2HD2 ASN A 142      -5.675  17.206  64.857  1.00  0.00     0.159 HD
ATOM     26 1HD2 ASN A 142      -5.793  16.072  66.219  1.00  0.00     0.159 HD
ATOM     27  OD1 ASN A 142      -6.623  14.182  64.903  1.00 51.97    -0.274 OA
ENDBRANCH  22  23
ENDBRANCH  21  22
END_RES ASN A 142
BEGIN_RES LEU A  27
REMARK  2 active torsions:
REMARK  status: ('A' for Active; 'I' for Inactive)
REMARK    9  A    between atoms: CA   and  CB  
REMARK   10  A    between atoms: CB   and  CG  
ROOT
ATOM     28  CA  LEU A  27     -11.471  23.771  64.549  1.00 37.04     0.177 C 
ENDROOT
BRANCH  28  29
ATOM     29  CB  LEU A  27     -12.225  22.902  65.570  1.00 37.70     0.038 C 
BRANCH  29  30
ATOM     30  CG  LEU A  27     -12.605  23.435  66.952  1.00 36.32    -0.020 C 
ATOM     31  CD1 LEU A  27     -13.728  24.456  66.868  1.00 32.79     0.009 C 
ATOM     32  CD2 LEU A  27     -13.012  22.272  67.845  1.00 31.17     0.009 C 
ENDBRANCH  29  30
ENDBRANCH  28  29
END_RES LEU A  27
BEGIN_RES MET A  49
REMARK  3 active torsions:
REMARK  status: ('A' for Active; 'I' for Inactive)
REMARK   11  A    between atoms: CA   and  CB  
REMARK   12  A    between atoms: CB   and  CG  
REMARK   13  A    between atoms: CG   and  SD  
ROOT
ATOM     33  CA  MET A  49      -9.418  15.600  76.823  1.00 61.58     0.177 C 
ENDROOT
BRANCH  33  34
ATOM     34  CB  MET A  49      -8.930  15.410  75.386  1.00 62.15     0.045 C 
BRANCH  34  35
ATOM     35  CG  MET A  49      -9.809  16.092  74.349  1.00 60.24     0.076 C 
BRANCH  35  36
ATOM     36  SD  MET A  49      -8.941  17.352  73.396  1.00 77.15    -0.173 SA
ATOM     37  CE  MET A  49      -8.160  16.342  72.138  1.00 60.34     0.089 C 
ENDBRANCH  35  36
ENDBRANCH  34  35
ENDBRANCH  33  34
END_RES MET A  49
BEGIN_RES GLU A 166
REMARK  3 active torsions:
REMARK  status: ('A' for Active; 'I' for Inactive)
REMARK   14  A    between atoms: CA   and  CB  
REMARK   15  A    between atoms: CB   and  CG  
REMARK   16  A    between atoms: CG   and  CD  
ROOT
ATOM     38  CA  GLU A 166     -14.746   9.219  66.167  1.00 28.52     0.177 C 
ENDROOT
BRANCH  38  39
ATOM     39  CB  GLU A 166     -13.578   9.064  65.189  1.00 29.90     0.045 C 
BRANCH  39  40
ATOM     40  CG  GLU A 166     -13.662   7.872  64.254  1.00 36.08     0.116 C 
BRANCH  40  41
ATOM     41  CD  GLU A 166     -12.411   7.726  63.407  1.00 45.17     0.172 C 
ATOM     42  OE2 GLU A 166     -11.436   8.467  63.654  1.00 40.54    -0.648 OA
ATOM     43  OE1 GLU A 166     -12.398   6.864  62.503  1.00 50.70    -0.648 OA
ENDBRANCH  40  41
ENDBRANCH  39  40
ENDBRANCH  38  39
END_RES GLU A 166
BEGIN_RES HIS A 163
REMARK  2 active torsions:
REMARK  status: ('A' for Active; 'I' for Inactive)
REMARK   17  A    between atoms: CA   and  CB  
REMARK   18  A    between atoms: CB   and  CG  
ROOT
ATOM     44  CA  HIS A 163     -19.055  16.637  64.100  1.00 27.27     0.182 C 
ENDROOT
BRANCH  44  45
ATOM     45  CB  HIS A 163     -18.129  16.377  62.914  1.00 26.00     0.093 C 
BRANCH  45  46
ATOM     46  CG  HIS A 163     -17.114  15.309  63.173  1.00 26.66     0.028 A 
ATOM     47  ND1 HIS A 163     -15.762  15.568  63.231  1.00 26.97    -0.354 N 
ATOM     48  CE1 HIS A 163     -15.110  14.443  63.466  1.00 30.44     0.180 A 
ATOM     49  HD1 HIS A 163     -15.332  16.485  63.113  1.00  0.00     0.166 HD
ATOM     50  NE2 HIS A 163     -15.991  13.463  63.557  1.00 30.00    -0.360 N 
ATOM     51  CD2 HIS A 163     -17.252  13.977  63.376  1.00 29.24     0.114 A 
ATOM     52  HE2 HIS A 163     -15.770  12.483  63.732  1.00  0.00     0.166 HD
ENDBRANCH  45  46
ENDBRANCH  44  45
END_RES HIS A 163
BEGIN_RES HIS A 172
REMARK  2 active torsions:
REMARK  status: ('A' for Active; 'I' for Inactive)
REMARK   19  A    between atoms: CA   and  CB  
REMARK   20  A    between atoms: CB   and  CG  
ROOT
ATOM     53  CA  HIS A 172     -18.444   9.111  64.049  1.00 29.85     0.182 C 
ENDROOT
BRANCH  53  54
ATOM     54  CB  HIS A 172     -18.188  10.085  62.898  1.00 26.76     0.093 C 
BRANCH  54  55
ATOM     55  CG  HIS A 172     -16.882   9.859  62.204  1.00 28.76     0.028 A 
ATOM     56  CD2 HIS A 172     -15.623  10.239  62.528  1.00 29.36     0.114 A 
ATOM     57  NE2 HIS A 172     -14.789   9.758  61.547  1.00 33.77    -0.360 N 
ATOM     58  CE1 HIS A 172     -15.510   9.101  60.655  1.00 32.44     0.180 A 
ATOM     59  HE2 HIS A 172     -13.778   9.887  61.514  1.00  0.00     0.166 HD
ATOM     60  ND1 HIS A 172     -16.776   9.144  61.030  1.00 29.32    -0.354 N 
ATOM     61  HD1 HIS A 172     -17.555   8.715  60.529  1.00  0.00     0.166 HD
ENDBRANCH  54  55
ENDBRANCH  53  54
END_RES HIS A 172
BEGIN_RES THR A  26
REMARK  2 active torsions:
REMARK  status: ('A' for Active; 'I' for Inactive)
REMARK   21  A    between atoms: CA   and  CB  
REMARK   22  A    between atoms: CB   and  OG1 
ROOT
ATOM     62  CA  THR A  26      -8.224  25.031  66.060  1.00 43.98     0.205 C 
ENDROOT
BRANCH  62  63
ATOM     63  CB  THR A  26      -7.184  25.490  65.034  1.00 45.90     0.146 C 
ATOM     64  CG2 THR A  26      -7.853  26.026  63.767  1.00 47.20     0.042 C 
BRANCH  63  65
ATOM     65  OG1 THR A  26      -6.353  26.505  65.607  1.00 50.51    -0.393 OA
ATOM     66  HG1 THR A  26      -5.972  26.190  66.419  1.00  0.00     0.210 HD
ENDBRANCH  63  65
ENDBRANCH  62  63
END_RES THR A  26
ENDMDL
MODEL 4
REMARK VINA RESULT:      -6.6      1.835      3.481
REMARK  10 active torsions:
REMARK  status: ('A' for Active; 'I' for Inactive)
REMARK    1  A    between atoms: C2_2  and  O1_3 
REMARK    2  A    between atoms: C2_2  and  C4_5 
REMARK    3  A    between atoms: C6_8  and  C7_9 
REMARK    4  A    between atoms: C7_9  and  C9_11 
REMARK    5  A    between atoms: C9_11  and  C10_12 
REMARK    6  A    between atoms: C10_12  and  C11_13 
REMARK    7  A    between atoms: C13_16  and  C14_17 
REMARK    8  A    between atoms: C14_17  and  C15_18 
REMARK    9  A    between atoms: C15_18  and  O3_20 
REMARK   10  A    between atoms: C16_21  and  O4_22 
ROOT
HETATM    1  C1  UNL     1      -7.084  19.699  67.610  1.00  0.00     0.052 C 
HETATM    2  C2  UNL     1      -7.887  18.880  68.231  1.00  0.00     0.073 C 
ENDROOT
BRANCH   2   3
HETATM    3  O1  UNL     1      -8.218  19.152  69.561  1.00  0.00    -0.356 OA
HETATM    4  C3  UNL     1      -7.249  19.418  70.554  1.00  0.00     0.210 C 
ENDBRANCH   2   3
BRANCH   2   5
HETATM    5  C4  UNL     1      -8.453  17.708  67.613  1.00  0.00     0.052 A 
HETATM    6  C5  UNL     1      -9.364  17.799  66.608  1.00  0.00     0.134 A 
HETATM    7  N1  UNL     1      -9.914  16.700  66.007  1.00  0.00    -0.264 NA
HETATM    8  C6  UNL     1      -9.583  15.460  66.380  1.00  0.00     0.041 A 
HETATM    9  C18 UNL     1      -8.664  15.333  67.393  1.00  0.00     0.070 A 
HETATM   10  C19 UNL     1      -8.091  16.423  68.019  1.00  0.00     0.132 A 
HETATM   11  F1  UNL     1      -7.187  16.321  69.017  1.00  0.00    -0.205 F 
BRANCH   8  12
HETATM   12  C7  UNL     1     -10.173  14.296  65.737  1.00  0.00     0.034 C 
HETATM   13  C8  UNL     1      -9.133  13.467  64.974  1.00  0.00     0.016 C 
BRANCH  12  14
HETATM   14  C9  UNL     1     -10.840  13.348  66.742  1.00  0.00     0.011 C 
BRANCH  14  15
HETATM   15  C10 UNL     1     -12.016  14.071  67.302  1.00  0.00     0.007 C 
BRANCH  15  16
HETATM   16  C11 UNL     1     -11.992  14.311  68.767  1.00  0.00     0.016 C 
HETATM   17  C12 UNL     1     -11.875  15.769  69.142  1.00  0.00     0.275 C 
HETATM   18  N2  UNL     1     -12.255  15.990  70.508  1.00  0.00     0.091 N 
HETATM   19  C13 UNL     1     -11.701  15.046  71.438  1.00  0.00     0.258 C 
HETATM   20  H18 UNL     1     -13.291  16.000  70.648  1.00  0.00     0.316 HD
HETATM   21  C16 UNL     1     -10.700  14.109  70.876  1.00  0.00     0.152 C 
HETATM   22  C17 UNL     1     -10.966  13.557  69.527  1.00  0.00     0.040 C 
BRANCH  19  23
HETATM   23  C14 UNL     1     -12.791  14.347  72.235  1.00  0.00     0.148 C 
BRANCH  23  24
HETATM   24  C15 UNL     1     -14.020  15.131  72.333  1.00  0.00     0.141 C 
HETATM   25  O2  UNL     1     -14.986  14.842  71.608  1.00  0.00    -0.650 OA
BRANCH  24  26
HETATM   26  O3  UNL     1     -14.135  16.192  73.215  1.00  0.00    -0.776 OA
HETATM   27  H22 UNL     1     -13.505  16.238  74.003  1.00  0.00     0.167 HD
ENDBRANCH  24  26
ENDBRANCH  23  24
ENDBRANCH  19  23
BRANCH  21  28
HETATM   28  O4  UNL     1      -9.408  14.683  70.967  1.00  0.00    -0.393 OA
HETATM   29  H24 UNL     1      -9.235  15.083  70.080  1.00  0.00     0.210 HD
ENDBRANCH  21  28
ENDBRANCH  15  16
ENDBRANCH  14  15
ENDBRANCH  12  14
ENDBRANCH   8  12
ENDBRANCH   2   5
TORSDOF 10
BEGIN_RES HIS A  41
REMARK  2 active torsions:
REMARK  status: ('A' for Active; 'I' for Inactive)
REMARK    1  A    between atoms: CA   and  CB  
REMARK    2  A    between atoms: CB   and  CG  
ROOT
ATOM      1  CA  HIS A  41     -13.820  21.037  73.265  1.00 38.89     0.182 C 
ENDROOT
BRANCH   1   2
ATOM      2  CB  HIS A  41     -13.705  19.545  72.937  1.00 42.38     0.093 C 
BRANCH   2   3
ATOM      3  CG  HIS A  41     -14.067  19.202  71.526  1.00 37.90     0.028 A 
ATOM      4  CD2 HIS A  41     -13.476  19.519  70.350  1.00 37.33     0.114 A 
ATOM      5  NE2 HIS A  41     -14.221  18.938  69.353  1.00 41.88    -0.360 N 
ATOM      6  CE1 HIS A  41     -15.230  18.282  69.898  1.00 41.55     0.180 A 
ATOM      7  HE2 HIS A  41     -14.026  19.003  68.354  1.00  0.00     0.166 HD
ATOM      8  ND1 HIS A  41     -15.159  18.423  71.209  1.00 36.57    -0.354 N 
ATOM      9  HD1 HIS A  41     -15.810  18.018  71.882  1.00  0.00     0.166 HD
ENDBRANCH   2   3
ENDBRANCH   1   2
END_RES HIS A  41
BEGIN_RES CYS A 145
REMARK  1 active torsions:
REMARK  status: ('A' for Active; 'I' for Inactive)
REMARK    3  A    between atoms: CA   and  CB  
ROOT
ATOM     10  CA  CYS A 145     -14.607  19.162  64.101  1.00 29.71     0.186 C 
ENDROOT
BRANCH  10  11
ATOM     11  CB  CYS A 145     -14.100  19.110  65.541  1.00 31.75     0.120 C 
ATOM     12  SG  CYS A 145     -13.568  17.469  66.062  1.00 39.68    -0.095 SA
ENDBRANCH  10  11
END_RES CYS A 145
BEGIN_RES GLN A 189
REMARK  3 active torsions:
REMARK  status: ('A' for Active; 'I' for Inactive)
REMARK    4  A    between atoms: CA   and  CB  
REMARK    5  A    between atoms: CB   and  CG  
REMARK    6  A    between atoms: CG   and  CD  
REMARK       I    between atoms: CD   and  NE2 
ROOT
ATOM     13  CA  GLN A 189     -11.641  10.633  75.105  1.00 38.41     0.177 C 
ENDROOT
BRANCH  13  14
ATOM     14  CB  GLN A 189     -10.259  11.109  74.679  1.00 37.59     0.044 C 
BRANCH  14  15
ATOM     15  CG  GLN A 189     -10.167  11.463  73.204  1.00 45.60     0.105 C 
BRANCH  15  16
ATOM     16  CD  GLN A 189     -10.812  10.423  72.310  1.00 47.27     0.215 C 
ATOM     17  NE2 GLN A 189     -10.208   9.241  72.245  1.00 44.45    -0.370 N 
ATOM     18 2HE2 GLN A 189      -9.355   9.030  72.763  1.00  0.00     0.159 HD
ATOM     19 1HE2 GLN A 189     -10.642   8.541  71.643  1.00  0.00     0.159 HD
ATOM     20  OE1 GLN A 189     -11.841  10.679  71.685  1.00 41.09    -0.274 OA
ENDBRANCH  15  16
ENDBRANCH  14  15
ENDBRANCH  13  14
END_RES GLN A 189
BEGIN_RES ASN A 142
REMARK  2 active torsions:
REMARK  status: ('A' for Active; 'I' for Inactive)
REMARK    7  A    between atoms: CA   and  CB  
REMARK    8  A    between atoms: CB   and  CG  
REMARK       I    between atoms: CG   and  ND2 
ROOT
ATOM     21  CA  ASN A 142      -7.978  15.712  62.559  1.00 43.18     0.185 C 
ENDROOT
BRANCH  21  22
ATOM     22  CB  ASN A 142      -6.512  15.609  62.983  1.00 38.76     0.137 C 
BRANCH  22  23
ATOM     23  CG  ASN A 142      -6.302  15.934  64.450  1.00 50.71     0.217 C 
ATOM     24  ND2 ASN A 142      -5.868  14.943  65.219  1.00 55.08    -0.370 N 
ATOM     25 2HD2 ASN A 142      -5.683  14.007  64.857  1.00  0.00     0.159 HD
ATOM     26 1HD2 ASN A 142      -5.727  15.161  66.206  1.00  0.00     0.159 HD
ATOM     27  OD1 ASN A 142      -6.525  17.063  64.886  1.00 51.97    -0.274 OA
ENDBRANCH  22  23
ENDBRANCH  21  22
END_RES ASN A 142
BEGIN_RES LEU A  27
REMARK  2 active torsions:
REMARK  status: ('A' for Active; 'I' for Inactive)
REMARK    9  A    between atoms: CA   and  CB  
REMARK   10  A    between atoms: CB   and  CG  
ROOT
ATOM     28  CA  LEU A  27     -11.471  23.771  64.549  1.00 37.04     0.177 C 
ENDROOT
BRANCH  28  29
ATOM     29  CB  LEU A  27     -12.225  22.902  65.570  1.00 37.70     0.038 C 
BRANCH  29  30
ATOM     30  CG  LEU A  27     -12.586  23.427  66.960  1.00 36.32    -0.020 C 
ATOM     31  CD1 LEU A  27     -13.711  24.448  66.897  1.00 32.79     0.009 C 
ATOM     32  CD2 LEU A  27     -12.978  22.260  67.853  1.00 31.17     0.009 C 
ENDBRANCH  29  30
ENDBRANCH  28  29
END_RES LEU A  27
BEGIN_RES MET A  49
REMARK  3 active torsions:
REMARK  status: ('A' for Active; 'I' for Inactive)
REMARK   11  A    between atoms: CA   and  CB  
REMARK   12  A    between atoms: CB   and  CG  
REMARK   13  A    between atoms: CG   and  SD  
ROOT
ATOM     33  CA  MET A  49      -9.418  15.600  76.823  1.00 61.58     0.177 C 
ENDROOT
BRANCH  33  34
ATOM     34  CB  MET A  49      -8.930  15.410  75.386  1.00 62.15     0.045 C 
BRANCH  34  35
ATOM     35  CG  MET A  49      -9.779  16.135  74.354  1.00 60.24     0.076 C 
BRANCH  35  36
ATOM     36  SD  MET A  49      -8.863  17.379  73.424  1.00 77.15    -0.173 SA
ATOM     37  CE  MET A  49     -10.199  18.201  72.558  1.00 60.34     0.089 C 
ENDBRANCH  35  36
ENDBRANCH  34  35
ENDBRANCH  33  34
END_RES MET A  49
BEGIN_RES GLU A 166
REMARK  3 active torsions:
REMARK  status: ('A' for Active; 'I' for Inactive)
REMARK   14  A    between atoms: CA   and  CB  
REMARK   15  A    between atoms: CB   and  CG  
REMARK   16  A    between atoms: CG   and  CD  
ROOT
ATOM     38  CA  GLU A 166     -14.746   9.219  66.167  1.00 28.52     0.177 C 
ENDROOT
BRANCH  38  39
ATOM     39  CB  GLU A 166     -13.578   9.064  65.189  1.00 29.90     0.045 C 
BRANCH  39  40
ATOM     40  CG  GLU A 166     -12.421  10.022  65.396  1.00 36.08     0.116 C 
BRANCH  40  41
ATOM     41  CD  GLU A 166     -12.355  11.077  64.307  1.00 45.17     0.172 C 
ATOM     42  OE2 GLU A 166     -13.178  12.016  64.338  1.00 40.54    -0.648 OA
ATOM     43  OE1 GLU A 166     -11.474  10.974  63.426  1.00 50.70    -0.648 OA
ENDBRANCH  40  41
ENDBRANCH  39  40
ENDBRANCH  38  39
END_RES GLU A 166
BEGIN_RES HIS A 163
REMARK  2 active torsions:
REMARK  status: ('A' for Active; 'I' for Inactive)
REMARK   17  A    between atoms: CA   and  CB  
REMARK   18  A    between atoms: CB   and  CG  
ROOT
ATOM     44  CA  HIS A 163     -19.055  16.637  64.100  1.00 27.27     0.182 C 
ENDROOT
BRANCH  44  45
ATOM     45  CB  HIS A 163     -18.129  16.377  62.914  1.00 26.00     0.093 C 
BRANCH  45  46
ATOM     46  CG  HIS A 163     -17.086  15.340  63.188  1.00 26.66     0.028 A 
ATOM     47  ND1 HIS A 163     -15.743  15.641  63.264  1.00 26.97    -0.354 N 
ATOM     48  CE1 HIS A 163     -15.060  14.536  63.509  1.00 30.44     0.180 A 
ATOM     49  HD1 HIS A 163     -15.339  16.570  63.150  1.00  0.00     0.166 HD
ATOM     50  NE2 HIS A 163     -15.913  13.530  63.590  1.00 30.00    -0.360 N 
ATOM     51  CD2 HIS A 163     -17.186  14.006  63.392  1.00 29.24     0.114 A 
ATOM     52  HE2 HIS A 163     -15.665  12.557  63.769  1.00  0.00     0.166 HD
ENDBRANCH  45  46
ENDBRANCH  44  45
END_RES HIS A 163
BEGIN_RES HIS A 172
REMARK  2 active torsions:
REMARK  status: ('A' for Active; 'I' for Inactive)
REMARK   19  A    between atoms: CA   and  CB  
REMARK   20  A    between atoms: CB   and  CG  
ROOT
ATOM     53  CA  HIS A 172     -18.444   9.111  64.049  1.00 29.85     0.182 C 
ENDROOT
BRANCH  53  54
ATOM     54  CB  HIS A 172     -18.188  10.085  62.898  1.00 26.76     0.093 C 
BRANCH  54  55
ATOM     55  CG  HIS A 172     -16.913   9.817  62.161  1.00 28.76     0.028 A 
ATOM     56  CD2 HIS A 172     -16.680   9.199  60.979  1.00 29.36     0.114 A 
ATOM     57  NE2 HIS A 172     -15.324   9.236  60.762  1.00 33.77    -0.360 N 
ATOM     58  CE1 HIS A 172     -14.745   9.859  61.774  1.00 32.44     0.180 A 
ATOM     59  HE2 HIS A 172     -14.843   8.845  59.952  1.00  0.00     0.166 HD
ATOM     60  ND1 HIS A 172     -15.682  10.223  62.631  1.00 29.32    -0.354 N 
ATOM     61  HD1 HIS A 172     -15.521  10.726  63.503  1.00  0.00     0.166 HD
ENDBRANCH  54  55
ENDBRANCH  53  54
END_RES HIS A 172
BEGIN_RES THR A  26
REMARK  2 active torsions:
REMARK  status: ('A' for Active; 'I' for Inactive)
REMARK   21  A    between atoms: CA   and  CB  
REMARK   22  A    between atoms: CB   and  OG1 
ROOT
ATOM     62  CA  THR A  26      -8.224  25.031  66.060  1.00 43.98     0.205 C 
ENDROOT
BRANCH  62  63
ATOM     63  CB  THR A  26      -7.184  25.490  65.034  1.00 45.90     0.146 C 
ATOM     64  CG2 THR A  26      -7.853  26.037  63.771  1.00 47.20     0.042 C 
BRANCH  63  65
ATOM     65  OG1 THR A  26      -6.345  26.497  65.610  1.00 50.51    -0.393 OA
ATOM     66  HG1 THR A  26      -5.459  26.166  65.700  1.00  0.00     0.210 HD
ENDBRANCH  63  65
ENDBRANCH  62  63
END_RES THR A  26
ENDMDL
MODEL 5
REMARK VINA RESULT:      -6.6      2.407      4.523
REMARK  10 active torsions:
REMARK  status: ('A' for Active; 'I' for Inactive)
REMARK    1  A    between atoms: C2_2  and  O1_3 
REMARK    2  A    between atoms: C2_2  and  C4_5 
REMARK    3  A    between atoms: C6_8  and  C7_9 
REMARK    4  A    between atoms: C7_9  and  C9_11 
REMARK    5  A    between atoms: C9_11  and  C10_12 
REMARK    6  A    between atoms: C10_12  and  C11_13 
REMARK    7  A    between atoms: C13_16  and  C14_17 
REMARK    8  A    between atoms: C14_17  and  C15_18 
REMARK    9  A    between atoms: C15_18  and  O3_20 
REMARK   10  A    between atoms: C16_21  and  O4_22 
ROOT
HETATM    1  C1  UNL     1     -10.692  15.476  65.773  1.00  0.00     0.052 C 
HETATM    2  C2  UNL     1      -9.863  16.232  66.438  1.00  0.00     0.073 C 
ENDROOT
BRANCH   2   3
HETATM    3  O1  UNL     1      -9.461  17.442  65.869  1.00  0.00    -0.356 OA
HETATM    4  C3  UNL     1     -10.115  18.667  66.128  1.00  0.00     0.210 C 
ENDBRANCH   2   3
BRANCH   2   5
HETATM    5  C4  UNL     1      -9.341  15.881  67.735  1.00  0.00     0.052 A 
HETATM    6  C5  UNL     1      -8.223  15.118  67.874  1.00  0.00     0.134 A 
HETATM    7  N1  UNL     1      -7.710  14.773  69.094  1.00  0.00    -0.264 NA
HETATM    8  C6  UNL     1      -8.287  15.171  70.232  1.00  0.00     0.041 A 
HETATM    9  C18 UNL     1      -9.418  15.943  70.127  1.00  0.00     0.070 A 
HETATM   10  C19 UNL     1      -9.959  16.308  68.910  1.00  0.00     0.132 A 
HETATM   11  F1  UNL     1     -11.070  17.066  68.785  1.00  0.00    -0.205 F 
BRANCH   8  12
HETATM   12  C7  UNL     1      -7.737  14.799  71.526  1.00  0.00     0.034 C 
HETATM   13  C8  UNL     1      -7.627  13.279  71.694  1.00  0.00     0.016 C 
BRANCH  12  14
HETATM   14  C9  UNL     1      -6.330  15.369  71.750  1.00  0.00     0.011 C 
BRANCH  14  15
HETATM   15  C10 UNL     1      -6.493  16.622  72.538  1.00  0.00     0.007 C 
BRANCH  15  16
HETATM   16  C11 UNL     1      -6.235  17.887  71.804  1.00  0.00     0.016 C 
HETATM   17  C12 UNL     1      -7.215  18.988  72.128  1.00  0.00     0.275 C 
HETATM   18  N2  UNL     1      -6.712  20.271  71.729  1.00  0.00     0.091 N 
HETATM   19  C13 UNL     1      -6.132  20.300  70.416  1.00  0.00     0.258 C 
HETATM   20  H18 UNL     1      -6.003  20.657  72.395  1.00  0.00     0.316 HD
HETATM   21  C16 UNL     1      -6.298  19.061  69.618  1.00  0.00     0.152 C 
HETATM   22  C17 UNL     1      -6.146  17.769  70.328  1.00  0.00     0.040 C 
BRANCH  19  23
HETATM   23  C14 UNL     1      -4.696  20.798  70.452  1.00  0.00     0.148 C 
BRANCH  23  24
HETATM   24  C15 UNL     1      -4.226  21.088  71.805  1.00  0.00     0.141 C 
HETATM   25  O2  UNL     1      -4.433  22.211  72.294  1.00  0.00    -0.650 OA
BRANCH  24  26
HETATM   26  O3  UNL     1      -3.553  20.140  72.556  1.00  0.00    -0.776 OA
HETATM   27  H22 UNL     1      -2.592  19.930  72.326  1.00  0.00     0.167 HD
ENDBRANCH  24  26
ENDBRANCH  23  24
ENDBRANCH  19  23
BRANCH  21  28
HETATM   28  O4  UNL     1      -7.510  19.124  68.889  1.00  0.00    -0.393 OA
HETATM   29  H24 UNL     1      -8.228  19.086  69.568  1.00  0.00     0.210 HD
ENDBRANCH  21  28
ENDBRANCH  15  16
ENDBRANCH  14  15
ENDBRANCH  12  14
ENDBRANCH   8  12
ENDBRANCH   2   5
TORSDOF 10
BEGIN_RES HIS A  41
REMARK  2 active torsions:
REMARK  status: ('A' for Active; 'I' for Inactive)
REMARK    1  A    between atoms: CA   and  CB  
REMARK    2  A    between atoms: CB   and  CG  
ROOT
ATOM      1  CA  HIS A  41     -13.820  21.037  73.265  1.00 38.89     0.182 C 
ENDROOT
BRANCH   1   2
ATOM      2  CB  HIS A  41     -13.705  19.545  72.937  1.00 42.38     0.093 C 
BRANCH   2   3
ATOM      3  CG  HIS A  41     -14.063  19.203  71.525  1.00 37.90     0.028 A 
ATOM      4  CD2 HIS A  41     -13.426  19.450  70.356  1.00 37.33     0.114 A 
ATOM      5  NE2 HIS A  41     -14.193  18.907  69.355  1.00 41.88    -0.360 N 
ATOM      6  CE1 HIS A  41     -15.261  18.342  69.890  1.00 41.55     0.180 A 
ATOM      7  HE2 HIS A  41     -13.974  18.937  68.359  1.00  0.00     0.166 HD
ATOM      8  ND1 HIS A  41     -15.205  18.503  71.199  1.00 36.57    -0.354 N 
ATOM      9  HD1 HIS A  41     -15.899  18.163  71.865  1.00  0.00     0.166 HD
ENDBRANCH   2   3
ENDBRANCH   1   2
END_RES HIS A  41
BEGIN_RES CYS A 145
REMARK  1 active torsions:
REMARK  status: ('A' for Active; 'I' for Inactive)
REMARK    3  A    between atoms: CA   and  CB  
ROOT
ATOM     10  CA  CYS A 145     -14.607  19.162  64.101  1.00 29.71     0.186 C 
ENDROOT
BRANCH  10  11
ATOM     11  CB  CYS A 145     -14.100  19.110  65.541  1.00 31.75     0.120 C 
ATOM     12  SG  CYS A 145     -13.776  17.439  66.134  1.00 39.68    -0.095 SA
ENDBRANCH  10  11
END_RES CYS A 145
BEGIN_RES GLN A 189
REMARK  3 active torsions:
REMARK  status: ('A' for Active; 'I' for Inactive)
REMARK    4  A    between atoms: CA   and  CB  
REMARK    5  A    between atoms: CB   and  CG  
REMARK    6  A    between atoms: CG   and  CD  
REMARK       I    between atoms: CD   and  NE2 
ROOT
ATOM     13  CA  GLN A 189     -11.641  10.633  75.105  1.00 38.41     0.177 C 
ENDROOT
BRANCH  13  14
ATOM     14  CB  GLN A 189     -10.259  11.109  74.679  1.00 37.59     0.044 C 
BRANCH  14  15
ATOM     15  CG  GLN A 189     -10.003  10.972  73.187  1.00 45.60     0.105 C 
BRANCH  15  16
ATOM     16  CD  GLN A 189     -11.018  11.720  72.347  1.00 47.27     0.215 C 
ATOM     17  NE2 GLN A 189     -11.726  10.995  71.487  1.00 44.45    -0.370 N 
ATOM     18 2HE2 GLN A 189     -11.604   9.988  71.386  1.00  0.00     0.159 HD
ATOM     19 1HE2 GLN A 189     -12.409  11.499  70.921  1.00  0.00     0.159 HD
ATOM     20  OE1 GLN A 189     -11.165  12.936  72.470  1.00 41.09    -0.274 OA
ENDBRANCH  15  16
ENDBRANCH  14  15
ENDBRANCH  13  14
END_RES GLN A 189
BEGIN_RES ASN A 142
REMARK  2 active torsions:
REMARK  status: ('A' for Active; 'I' for Inactive)
REMARK    7  A    between atoms: CA   and  CB  
REMARK    8  A    between atoms: CB   and  CG  
REMARK       I    between atoms: CG   and  ND2 
ROOT
ATOM     21  CA  ASN A 142      -7.978  15.712  62.559  1.00 43.18     0.185 C 
ENDROOT
BRANCH  21  22
ATOM     22  CB  ASN A 142      -6.512  15.609  62.983  1.00 38.76     0.137 C 
BRANCH  22  23
ATOM     23  CG  ASN A 142      -6.342  15.531  64.488  1.00 50.71     0.217 C 
ATOM     24  ND2 ASN A 142      -6.484  16.668  65.159  1.00 55.08    -0.370 N 
ATOM     25 2HD2 ASN A 142      -6.695  17.555  64.699  1.00  0.00     0.159 HD
ATOM     26 1HD2 ASN A 142      -6.369  16.616  66.172  1.00  0.00     0.159 HD
ATOM     27  OD1 ASN A 142      -6.086  14.463  65.043  1.00 51.97    -0.274 OA
ENDBRANCH  22  23
ENDBRANCH  21  22
END_RES ASN A 142
BEGIN_RES LEU A  27
REMARK  2 active torsions:
REMARK  status: ('A' for Active; 'I' for Inactive)
REMARK    9  A    between atoms: CA   and  CB  
REMARK   10  A    between atoms: CB   and  CG  
ROOT
ATOM     28  CA  LEU A  27     -11.471  23.771  64.549  1.00 37.04     0.177 C 
ENDROOT
BRANCH  28  29
ATOM     29  CB  LEU A  27     -12.225  22.902  65.570  1.00 37.70     0.038 C 
BRANCH  29  30
ATOM     30  CG  LEU A  27     -12.575  23.423  66.964  1.00 36.32    -0.020 C 
ATOM     31  CD1 LEU A  27     -13.721  24.420  66.917  1.00 32.79     0.009 C 
ATOM     32  CD2 LEU A  27     -12.929  22.250  67.865  1.00 31.17     0.009 C 
ENDBRANCH  29  30
ENDBRANCH  28  29
END_RES LEU A  27
BEGIN_RES MET A  49
REMARK  3 active torsions:
REMARK  status: ('A' for Active; 'I' for Inactive)
REMARK   11  A    between atoms: CA   and  CB  
REMARK   12  A    between atoms: CB   and  CG  
REMARK   13  A    between atoms: CG   and  SD  
ROOT
ATOM     33  CA  MET A  49      -9.418  15.600  76.823  1.00 61.58     0.177 C 
ENDROOT
BRANCH  33  34
ATOM     34  CB  MET A  49      -8.930  15.410  75.386  1.00 62.15     0.045 C 
BRANCH  34  35
ATOM     35  CG  MET A  49      -9.676  16.262  74.372  1.00 60.24     0.076 C 
BRANCH  35  36
ATOM     36  SD  MET A  49     -11.233  16.920  75.000  1.00 77.15    -0.173 SA
ATOM     37  CE  MET A  49     -12.385  15.684  74.406  1.00 60.34     0.089 C 
ENDBRANCH  35  36
ENDBRANCH  34  35
ENDBRANCH  33  34
END_RES MET A  49
BEGIN_RES GLU A 166
REMARK  3 active torsions:
REMARK  status: ('A' for Active; 'I' for Inactive)
REMARK   14  A    between atoms: CA   and  CB  
REMARK   15  A    between atoms: CB   and  CG  
REMARK   16  A    between atoms: CG   and  CD  
ROOT
ATOM     38  CA  GLU A 166     -14.746   9.219  66.167  1.00 28.52     0.177 C 
ENDROOT
BRANCH  38  39
ATOM     39  CB  GLU A 166     -13.578   9.064  65.189  1.00 29.90     0.045 C 
BRANCH  39  40
ATOM     40  CG  GLU A 166     -12.467  10.087  65.330  1.00 36.08     0.116 C 
BRANCH  40  41
ATOM     41  CD  GLU A 166     -12.335  10.956  64.093  1.00 45.17     0.172 C 
ATOM     42  OE2 GLU A 166     -13.202  11.832  63.886  1.00 40.54    -0.648 OA
ATOM     43  OE1 GLU A 166     -11.361  10.772  63.333  1.00 50.70    -0.648 OA
ENDBRANCH  40  41
ENDBRANCH  39  40
ENDBRANCH  38  39
END_RES GLU A 166
BEGIN_RES HIS A 163
REMARK  2 active torsions:
REMARK  status: ('A' for Active; 'I' for Inactive)
REMARK   17  A    between atoms: CA   and  CB  
REMARK   18  A    between atoms: CB   and  CG  
ROOT
ATOM     44  CA  HIS A 163     -19.055  16.637  64.100  1.00 27.27     0.182 C 
ENDROOT
BRANCH  44  45
ATOM     45  CB  HIS A 163     -18.129  16.377  62.914  1.00 26.00     0.093 C 
BRANCH  45  46
ATOM     46  CG  HIS A 163     -17.092  15.334  63.185  1.00 26.66     0.028 A 
ATOM     47  ND1 HIS A 163     -15.749  15.629  63.277  1.00 26.97    -0.354 N 
ATOM     48  CE1 HIS A 163     -15.071  14.520  63.515  1.00 30.44     0.180 A 
ATOM     49  HD1 HIS A 163     -15.341  16.559  63.178  1.00  0.00     0.166 HD
ATOM     50  NE2 HIS A 163     -15.927  13.515  63.575  1.00 30.00    -0.360 N 
ATOM     51  CD2 HIS A 163     -17.197  13.997  63.372  1.00 29.24     0.114 A 
ATOM     52  HE2 HIS A 163     -15.684  12.539  63.745  1.00  0.00     0.166 HD
ENDBRANCH  45  46
ENDBRANCH  44  45
END_RES HIS A 163
BEGIN_RES HIS A 172
REMARK  2 active torsions:
REMARK  status: ('A' for Active; 'I' for Inactive)
REMARK   19  A    between atoms: CA   and  CB  
REMARK   20  A    between atoms: CB   and  CG  
ROOT
ATOM     53  CA  HIS A 172     -18.444   9.111  64.049  1.00 29.85     0.182 C 
ENDROOT
BRANCH  53  54
ATOM     54  CB  HIS A 172     -18.188  10.085  62.898  1.00 26.76     0.093 C 
BRANCH  54  55
ATOM     55  CG  HIS A 172     -16.948   9.776  62.119  1.00 28.76     0.028 A 
ATOM     56  CD2 HIS A 172     -16.775   9.152  60.930  1.00 29.36     0.114 A 
ATOM     57  NE2 HIS A 172     -15.426   9.145  60.668  1.00 33.77    -0.360 N 
ATOM     58  CE1 HIS A 172     -14.793   9.749  61.659  1.00 32.44     0.180 A 
ATOM     59  HE2 HIS A 172     -14.985   8.739  59.843  1.00  0.00     0.166 HD
ATOM     60  ND1 HIS A 172     -15.690  10.143  62.547  1.00 29.32    -0.354 N 
ATOM     61  HD1 HIS A 172     -15.483  10.641  63.413  1.00  0.00     0.166 HD
ENDBRANCH  54  55
ENDBRANCH  53  54
END_RES HIS A 172
BEGIN_RES THR A  26
REMARK  2 active torsions:
REMARK  status: ('A' for Active; 'I' for Inactive)
REMARK   21  A    between atoms: CA   and  CB  
REMARK   22  A    between atoms: CB   and  OG1 
ROOT
ATOM     62  CA  THR A  26      -8.224  25.031  66.060  1.00 43.98     0.205 C 
ENDROOT
BRANCH  62  63
ATOM     63  CB  THR A  26      -7.184  25.490  65.034  1.00 45.90     0.146 C 
ATOM     64  CG2 THR A  26      -7.852  25.997  63.754  1.00 47.20     0.042 C 
BRANCH  63  65
ATOM     65  OG1 THR A  26      -6.372  26.526  65.597  1.00 50.51    -0.393 OA
ATOM     66  HG1 THR A  26      -5.513  26.519  65.191  1.00  0.00     0.210 HD
ENDBRANCH  63  65
ENDBRANCH  62  63
END_RES THR A  26
ENDMDL
MODEL 6
REMARK VINA RESULT:      -6.5      1.920      2.845
REMARK  10 active torsions:
REMARK  status: ('A' for Active; 'I' for Inactive)
REMARK    1  A    between atoms: C2_2  and  O1_3 
REMARK    2  A    between atoms: C2_2  and  C4_5 
REMARK    3  A    between atoms: C6_8  and  C7_9 
REMARK    4  A    between atoms: C7_9  and  C9_11 
REMARK    5  A    between atoms: C9_11  and  C10_12 
REMARK    6  A    between atoms: C10_12  and  C11_13 
REMARK    7  A    between atoms: C13_16  and  C14_17 
REMARK    8  A    between atoms: C14_17  and  C15_18 
REMARK    9  A    between atoms: C15_18  and  O3_20 
REMARK   10  A    between atoms: C16_21  and  O4_22 
ROOT
HETATM    1  C1  UNL     1      -7.217  19.510  71.606  1.00  0.00     0.052 C 
HETATM    2  C2  UNL     1      -7.642  18.817  70.587  1.00  0.00     0.073 C 
ENDROOT
BRANCH   2   3
HETATM    3  O1  UNL     1      -7.088  19.071  69.330  1.00  0.00    -0.356 OA
HETATM    4  C3  UNL     1      -6.249  20.177  69.070  1.00  0.00     0.210 C 
ENDBRANCH   2   3
BRANCH   2   5
HETATM    5  C4  UNL     1      -8.655  17.797  70.692  1.00  0.00     0.052 A 
HETATM    6  C5  UNL     1      -8.335  16.476  70.766  1.00  0.00     0.134 A 
HETATM    7  N1  UNL     1      -9.280  15.492  70.866  1.00  0.00    -0.264 NA
HETATM    8  C6  UNL     1     -10.586  15.776  70.897  1.00  0.00     0.041 A 
HETATM    9  C18 UNL     1     -10.942  17.101  70.824  1.00  0.00     0.070 A 
HETATM   10  C19 UNL     1     -10.012  18.117  70.723  1.00  0.00     0.132 A 
HETATM   11  F1  UNL     1     -10.341  19.425  70.650  1.00  0.00    -0.205 F 
BRANCH   8  12
HETATM   12  C7  UNL     1     -11.584  14.724  71.002  1.00  0.00     0.034 C 
HETATM   13  C8  UNL     1     -13.012  15.264  70.852  1.00  0.00     0.016 C 
BRANCH  12  14
HETATM   14  C9  UNL     1     -11.408  13.640  69.930  1.00  0.00     0.011 C 
BRANCH  14  15
HETATM   15  C10 UNL     1     -11.993  14.180  68.671  1.00  0.00     0.007 C 
BRANCH  15  16
HETATM   16  C11 UNL     1     -11.252  13.861  67.424  1.00  0.00     0.016 C 
HETATM   17  C12 UNL     1     -10.051  14.744  67.187  1.00  0.00     0.275 C 
HETATM   18  N2  UNL     1      -9.157  14.164  66.226  1.00  0.00     0.091 N 
HETATM   19  C13 UNL     1      -9.802  13.639  65.056  1.00  0.00     0.258 C 
HETATM   20  H18 UNL     1      -8.563  13.403  66.628  1.00  0.00     0.316 HD
HETATM   21  C16 UNL     1     -11.252  13.927  64.943  1.00  0.00     0.152 C 
HETATM   22  C17 UNL     1     -12.062  13.841  66.181  1.00  0.00     0.040 C 
BRANCH  19  23
HETATM   23  C14 UNL     1      -9.468  12.169  64.850  1.00  0.00     0.148 C 
BRANCH  23  24
HETATM   24  C15 UNL     1      -9.263  11.822  63.446  1.00  0.00     0.141 C 
HETATM   25  O2  UNL     1      -8.150  12.009  62.928  1.00  0.00    -0.650 OA
BRANCH  24  26
HETATM   26  O3  UNL     1     -10.282  11.287  62.676  1.00  0.00    -0.776 OA
HETATM   27  H22 UNL     1     -11.201  11.194  63.084  1.00  0.00     0.167 HD
ENDBRANCH  24  26
ENDBRANCH  23  24
ENDBRANCH  19  23
BRANCH  21  28
HETATM   28  O4  UNL     1     -11.440  15.160  64.273  1.00  0.00    -0.393 OA
HETATM   29  H24 UNL     1     -12.259  15.044  63.732  1.00  0.00     0.210 HD
ENDBRANCH  21  28
ENDBRANCH  15  16
ENDBRANCH  14  15
ENDBRANCH  12  14
ENDBRANCH   8  12
ENDBRANCH   2   5
TORSDOF 10
BEGIN_RES HIS A  41
REMARK  2 active torsions:
REMARK  status: ('A' for Active; 'I' for Inactive)
REMARK    1  A    between atoms: CA   and  CB  
REMARK    2  A    between atoms: CB   and  CG  
ROOT
ATOM      1  CA  HIS A  41     -13.820  21.037  73.265  1.00 38.89     0.182 C 
ENDROOT
BRANCH   1   2
ATOM      2  CB  HIS A  41     -13.705  19.545  72.937  1.00 42.38     0.093 C 
BRANCH   2   3
ATOM      3  CG  HIS A  41     -14.123  19.194  71.544  1.00 37.90     0.028 A 
ATOM      4  CD2 HIS A  41     -13.608  19.544  70.341  1.00 37.33     0.114 A 
ATOM      5  NE2 HIS A  41     -14.376  18.935  69.379  1.00 41.88    -0.360 N 
ATOM      6  CE1 HIS A  41     -15.326  18.231  69.970  1.00 41.55     0.180 A 
ATOM      7  HE2 HIS A  41     -14.237  19.014  68.372  1.00  0.00     0.166 HD
ATOM      8  ND1 HIS A  41     -15.194  18.368  71.277  1.00 36.57    -0.354 N 
ATOM      9  HD1 HIS A  41     -15.791  17.931  71.979  1.00  0.00     0.166 HD
ENDBRANCH   2   3
ENDBRANCH   1   2
END_RES HIS A  41
BEGIN_RES CYS A 145
REMARK  1 active torsions:
REMARK  status: ('A' for Active; 'I' for Inactive)
REMARK    3  A    between atoms: CA   and  CB  
ROOT
ATOM     10  CA  CYS A 145     -14.607  19.162  64.101  1.00 29.71     0.186 C 
ENDROOT
BRANCH  10  11
ATOM     11  CB  CYS A 145     -14.100  19.110  65.541  1.00 31.75     0.120 C 
ATOM     12  SG  CYS A 145     -13.586  17.465  66.068  1.00 39.68    -0.095 SA
ENDBRANCH  10  11
END_RES CYS A 145
BEGIN_RES GLN A 189
REMARK  3 active torsions:
REMARK  status: ('A' for Active; 'I' for Inactive)
REMARK    4  A    between atoms: CA   and  CB  
REMARK    5  A    between atoms: CB   and  CG  
REMARK    6  A    between atoms: CG   and  CD  
REMARK       I    between atoms: CD   and  NE2 
ROOT
ATOM     13  CA  GLN A 189     -11.641  10.633  75.105  1.00 38.41     0.177 C 
ENDROOT
BRANCH  13  14
ATOM     14  CB  GLN A 189     -10.259  11.109  74.679  1.00 37.59     0.044 C 
BRANCH  14  15
ATOM     15  CG  GLN A 189     -10.129  11.333  73.181  1.00 45.60     0.105 C 
BRANCH  15  16
ATOM     16  CD  GLN A 189     -10.343  10.065  72.378  1.00 47.27     0.215 C 
ATOM     17  NE2 GLN A 189     -11.192  10.145  71.359  1.00 44.45    -0.370 N 
ATOM     18 2HE2 GLN A 189     -11.682  11.007  71.118  1.00  0.00     0.159 HD
ATOM     19 1HE2 GLN A 189     -11.337   9.292  70.819  1.00  0.00     0.159 HD
ATOM     20  OE1 GLN A 189      -9.752   9.026  72.671  1.00 41.09    -0.274 OA
ENDBRANCH  15  16
ENDBRANCH  14  15
ENDBRANCH  13  14
END_RES GLN A 189
BEGIN_RES ASN A 142
REMARK  2 active torsions:
REMARK  status: ('A' for Active; 'I' for Inactive)
REMARK    7  A    between atoms: CA   and  CB  
REMARK    8  A    between atoms: CB   and  CG  
REMARK       I    between atoms: CG   and  ND2 
ROOT
ATOM     21  CA  ASN A 142      -7.978  15.712  62.559  1.00 43.18     0.185 C 
ENDROOT
BRANCH  21  22
ATOM     22  CB  ASN A 142      -6.512  15.609  62.983  1.00 38.76     0.137 C 
BRANCH  22  23
ATOM     23  CG  ASN A 142      -6.336  14.913  64.319  1.00 50.71     0.217 C 
ATOM     24  ND2 ASN A 142      -5.986  13.633  64.278  1.00 55.08    -0.370 N 
ATOM     25 2HD2 ASN A 142      -5.840  13.131  63.401  1.00  0.00     0.159 HD
ATOM     26 1HD2 ASN A 142      -5.867  13.165  65.177  1.00  0.00     0.159 HD
ATOM     27  OD1 ASN A 142      -6.512  15.518  65.376  1.00 51.97    -0.274 OA
ENDBRANCH  22  23
ENDBRANCH  21  22
END_RES ASN A 142
BEGIN_RES LEU A  27
REMARK  2 active torsions:
REMARK  status: ('A' for Active; 'I' for Inactive)
REMARK    9  A    between atoms: CA   and  CB  
REMARK   10  A    between atoms: CB   and  CG  
ROOT
ATOM     28  CA  LEU A  27     -11.471  23.771  64.549  1.00 37.04     0.177 C 
ENDROOT
BRANCH  28  29
ATOM     29  CB  LEU A  27     -12.225  22.902  65.570  1.00 37.70     0.038 C 
BRANCH  29  30
ATOM     30  CG  LEU A  27     -12.524  23.402  66.983  1.00 36.32    -0.020 C 
ATOM     31  CD1 LEU A  27     -13.840  24.162  67.041  1.00 32.79     0.009 C 
ATOM     32  CD2 LEU A  27     -12.553  22.219  67.940  1.00 31.17     0.009 C 
ENDBRANCH  29  30
ENDBRANCH  28  29
END_RES LEU A  27
BEGIN_RES MET A  49
REMARK  3 active torsions:
REMARK  status: ('A' for Active; 'I' for Inactive)
REMARK   11  A    between atoms: CA   and  CB  
REMARK   12  A    between atoms: CB   and  CG  
REMARK   13  A    between atoms: CG   and  SD  
ROOT
ATOM     33  CA  MET A  49      -9.418  15.600  76.823  1.00 61.58     0.177 C 
ENDROOT
BRANCH  33  34
ATOM     34  CB  MET A  49      -8.930  15.410  75.386  1.00 62.15     0.045 C 
BRANCH  34  35
ATOM     35  CG  MET A  49      -9.634  16.307  74.380  1.00 60.24     0.076 C 
BRANCH  35  36
ATOM     36  SD  MET A  49     -11.184  16.991  74.996  1.00 77.15    -0.173 SA
ATOM     37  CE  MET A  49     -12.336  15.710  74.501  1.00 60.34     0.089 C 
ENDBRANCH  35  36
ENDBRANCH  34  35
ENDBRANCH  33  34
END_RES MET A  49
BEGIN_RES GLU A 166
REMARK  3 active torsions:
REMARK  status: ('A' for Active; 'I' for Inactive)
REMARK   14  A    between atoms: CA   and  CB  
REMARK   15  A    between atoms: CB   and  CG  
REMARK   16  A    between atoms: CG   and  CD  
ROOT
ATOM     38  CA  GLU A 166     -14.746   9.219  66.167  1.00 28.52     0.177 C 
ENDROOT
BRANCH  38  39
ATOM     39  CB  GLU A 166     -13.578   9.064  65.189  1.00 29.90     0.045 C 
BRANCH  39  40
ATOM     40  CG  GLU A 166     -13.594   7.803  64.346  1.00 36.08     0.116 C 
BRANCH  40  41
ATOM     41  CD  GLU A 166     -12.566   7.852  63.231  1.00 45.17     0.172 C 
ATOM     42  OE2 GLU A 166     -12.075   8.959  62.924  1.00 40.54    -0.648 OA
ATOM     43  OE1 GLU A 166     -12.241   6.784  62.669  1.00 50.70    -0.648 OA
ENDBRANCH  40  41
ENDBRANCH  39  40
ENDBRANCH  38  39
END_RES GLU A 166
BEGIN_RES HIS A 163
REMARK  2 active torsions:
REMARK  status: ('A' for Active; 'I' for Inactive)
REMARK   17  A    between atoms: CA   and  CB  
REMARK   18  A    between atoms: CB   and  CG  
ROOT
ATOM     44  CA  HIS A 163     -19.055  16.637  64.100  1.00 27.27     0.182 C 
ENDROOT
BRANCH  44  45
ATOM     45  CB  HIS A 163     -18.129  16.377  62.914  1.00 26.00     0.093 C 
BRANCH  45  46
ATOM     46  CG  HIS A 163     -17.095  15.330  63.183  1.00 26.66     0.028 A 
ATOM     47  ND1 HIS A 163     -15.751  15.621  63.275  1.00 26.97    -0.354 N 
ATOM     48  CE1 HIS A 163     -15.077  14.509  63.511  1.00 30.44     0.180 A 
ATOM     49  HD1 HIS A 163     -15.340  16.549  63.176  1.00  0.00     0.166 HD
ATOM     50  NE2 HIS A 163     -15.937  13.507  63.571  1.00 30.00    -0.360 N 
ATOM     51  CD2 HIS A 163     -17.205  13.994  63.369  1.00 29.24     0.114 A 
ATOM     52  HE2 HIS A 163     -15.697  12.530  63.740  1.00  0.00     0.166 HD
ENDBRANCH  45  46
ENDBRANCH  44  45
END_RES HIS A 163
BEGIN_RES HIS A 172
REMARK  2 active torsions:
REMARK  status: ('A' for Active; 'I' for Inactive)
REMARK   19  A    between atoms: CA   and  CB  
REMARK   20  A    between atoms: CB   and  CG  
ROOT
ATOM     53  CA  HIS A 172     -18.444   9.111  64.049  1.00 29.85     0.182 C 
ENDROOT
BRANCH  53  54
ATOM     54  CB  HIS A 172     -18.188  10.085  62.898  1.00 26.76     0.093 C 
BRANCH  54  55
ATOM     55  CG  HIS A 172     -16.880   9.862  62.206  1.00 28.76     0.028 A 
ATOM     56  CD2 HIS A 172     -15.622  10.237  62.537  1.00 29.36     0.114 A 
ATOM     57  NE2 HIS A 172     -14.785   9.761  61.556  1.00 33.77    -0.360 N 
ATOM     58  CE1 HIS A 172     -15.505   9.112  60.657  1.00 32.44     0.180 A 
ATOM     59  HE2 HIS A 172     -13.774   9.888  61.526  1.00  0.00     0.166 HD
ATOM     60  ND1 HIS A 172     -16.772   9.154  61.028  1.00 29.32    -0.354 N 
ATOM     61  HD1 HIS A 172     -17.550   8.730  60.521  1.00  0.00     0.166 HD
ENDBRANCH  54  55
ENDBRANCH  53  54
END_RES HIS A 172
BEGIN_RES THR A  26
REMARK  2 active torsions:
REMARK  status: ('A' for Active; 'I' for Inactive)
REMARK   21  A    between atoms: CA   and  CB  
REMARK   22  A    between atoms: CB   and  OG1 
ROOT
ATOM     62  CA  THR A  26      -8.224  25.031  66.060  1.00 43.98     0.205 C 
ENDROOT
BRANCH  62  63
ATOM     63  CB  THR A  26      -7.184  25.490  65.034  1.00 45.90     0.146 C 
ATOM     64  CG2 THR A  26      -7.853  26.015  63.762  1.00 47.20     0.042 C 
BRANCH  63  65
ATOM     65  OG1 THR A  26      -6.360  26.513  65.603  1.00 50.51    -0.393 OA
ATOM     66  HG1 THR A  26      -5.618  26.683  65.034  1.00  0.00     0.210 HD
ENDBRANCH  63  65
ENDBRANCH  62  63
END_RES THR A  26
ENDMDL
MODEL 7
REMARK VINA RESULT:      -6.5      1.853      4.350
REMARK  10 active torsions:
REMARK  status: ('A' for Active; 'I' for Inactive)
REMARK    1  A    between atoms: C2_2  and  O1_3 
REMARK    2  A    between atoms: C2_2  and  C4_5 
REMARK    3  A    between atoms: C6_8  and  C7_9 
REMARK    4  A    between atoms: C7_9  and  C9_11 
REMARK    5  A    between atoms: C9_11  and  C10_12 
REMARK    6  A    between atoms: C10_12  and  C11_13 
REMARK    7  A    between atoms: C13_16  and  C14_17 
REMARK    8  A    between atoms: C14_17  and  C15_18 
REMARK    9  A    between atoms: C15_18  and  O3_20 
REMARK   10  A    between atoms: C16_21  and  O4_22 
ROOT
HETATM    1  C1  UNL     1     -10.122  11.371  65.299  1.00  0.00     0.052 C 
HETATM    2  C2  UNL     1     -11.245  11.966  65.591  1.00  0.00     0.073 C 
ENDROOT
BRANCH   2   3
HETATM    3  O1  UNL     1     -12.251  12.005  64.622  1.00  0.00    -0.356 OA
HETATM    4  C3  UNL     1     -12.043  12.510  63.320  1.00  0.00     0.210 C 
ENDBRANCH   2   3
BRANCH   2   5
HETATM    5  C4  UNL     1     -11.503  12.585  66.867  1.00  0.00     0.052 A 
HETATM    6  C5  UNL     1     -11.590  11.855  68.011  1.00  0.00     0.134 A 
HETATM    7  N1  UNL     1     -11.834  12.421  69.233  1.00  0.00    -0.264 NA
HETATM    8  C6  UNL     1     -12.003  13.740  69.370  1.00  0.00     0.041 A 
HETATM    9  C18 UNL     1     -11.921  14.506  68.233  1.00  0.00     0.070 A 
HETATM   10  C19 UNL     1     -11.675  13.964  66.987  1.00  0.00     0.132 A 
HETATM   11  F1  UNL     1     -11.591  14.699  65.856  1.00  0.00    -0.205 F 
BRANCH   8  12
HETATM   12  C7  UNL     1     -12.263  14.335  70.672  1.00  0.00     0.034 C 
HETATM   13  C8  UNL     1     -12.629  13.284  71.726  1.00  0.00     0.016 C 
BRANCH  12  14
HETATM   14  C9  UNL     1     -11.052  15.103  71.218  1.00  0.00     0.011 C 
BRANCH  14  15
HETATM   15  C10 UNL     1     -11.389  16.552  71.139  1.00  0.00     0.007 C 
BRANCH  15  16
HETATM   16  C11 UNL     1     -10.520  17.372  70.258  1.00  0.00     0.016 C 
HETATM   17  C12 UNL     1      -9.365  16.607  69.659  1.00  0.00     0.275 C 
HETATM   18  N2  UNL     1      -8.807  17.297  68.532  1.00  0.00     0.091 N 
HETATM   19  C13 UNL     1      -8.601  18.703  68.739  1.00  0.00     0.258 C 
HETATM   20  H18 UNL     1      -9.378  17.188  67.662  1.00  0.00     0.316 HD
HETATM   21  C16 UNL     1      -8.829  19.184  70.123  1.00  0.00     0.152 C 
HETATM   22  C17 UNL     1      -9.985  18.618  70.858  1.00  0.00     0.040 C 
BRANCH  19  23
HETATM   23  C14 UNL     1      -9.327  19.533  67.692  1.00  0.00     0.148 C 
BRANCH  23  24
HETATM   24  C15 UNL     1      -9.321  18.915  66.369  1.00  0.00     0.141 C 
HETATM   25  O2  UNL     1     -10.360  18.920  65.689  1.00  0.00    -0.650 OA
BRANCH  24  26
HETATM   26  O3  UNL     1      -8.182  18.322  65.852  1.00  0.00    -0.776 OA
HETATM   27  H22 UNL     1      -7.913  17.409  66.190  1.00  0.00     0.167 HD
ENDBRANCH  24  26
ENDBRANCH  23  24
ENDBRANCH  19  23
BRANCH  21  28
HETATM   28  O4  UNL     1      -7.628  19.081  70.866  1.00  0.00    -0.393 OA
HETATM   29  H24 UNL     1      -6.927  18.866  70.204  1.00  0.00     0.210 HD
ENDBRANCH  21  28
ENDBRANCH  15  16
ENDBRANCH  14  15
ENDBRANCH  12  14
ENDBRANCH   8  12
ENDBRANCH   2   5
TORSDOF 10
BEGIN_RES HIS A  41
REMARK  2 active torsions:
REMARK  status: ('A' for Active; 'I' for Inactive)
REMARK    1  A    between atoms: CA   and  CB  
REMARK    2  A    between atoms: CB   and  CG  
ROOT
ATOM      1  CA  HIS A  41     -13.820  21.037  73.265  1.00 38.89     0.182 C 
ENDROOT
BRANCH   1   2
ATOM      2  CB  HIS A  41     -13.705  19.545  72.937  1.00 42.38     0.093 C 
BRANCH   2   3
ATOM      3  CG  HIS A  41     -14.040  19.206  71.519  1.00 37.90     0.028 A 
ATOM      4  CD2 HIS A  41     -15.018  18.431  70.992  1.00 37.33     0.114 A 
ATOM      5  NE2 HIS A  41     -14.873  18.468  69.627  1.00 41.88    -0.360 N 
ATOM      6  CE1 HIS A  41     -13.846  19.244  69.326  1.00 41.55     0.180 A 
ATOM      7  HE2 HIS A  41     -15.463  17.977  68.955  1.00  0.00     0.166 HD
ATOM      8  ND1 HIS A  41     -13.328  19.704  70.449  1.00 36.57    -0.354 N 
ATOM      9  HD1 HIS A  41     -12.525  20.330  70.515  1.00  0.00     0.166 HD
ENDBRANCH   2   3
ENDBRANCH   1   2
END_RES HIS A  41
BEGIN_RES CYS A 145
REMARK  1 active torsions:
REMARK  status: ('A' for Active; 'I' for Inactive)
REMARK    3  A    between atoms: CA   and  CB  
ROOT
ATOM     10  CA  CYS A 145     -14.607  19.162  64.101  1.00 29.71     0.186 C 
ENDROOT
BRANCH  10  11
ATOM     11  CB  CYS A 145     -14.100  19.110  65.541  1.00 31.75     0.120 C 
ATOM     12  SG  CYS A 145     -13.653  17.453  66.091  1.00 39.68    -0.095 SA
ENDBRANCH  10  11
END_RES CYS A 145
BEGIN_RES GLN A 189
REMARK  3 active torsions:
REMARK  status: ('A' for Active; 'I' for Inactive)
REMARK    4  A    between atoms: CA   and  CB  
REMARK    5  A    between atoms: CB   and  CG  
REMARK    6  A    between atoms: CG   and  CD  
REMARK       I    between atoms: CD   and  NE2 
ROOT
ATOM     13  CA  GLN A 189     -11.641  10.633  75.105  1.00 38.41     0.177 C 
ENDROOT
BRANCH  13  14
ATOM     14  CB  GLN A 189     -10.259  11.109  74.679  1.00 37.59     0.044 C 
BRANCH  14  15
ATOM     15  CG  GLN A 189      -9.911  10.755  73.242  1.00 45.60     0.105 C 
BRANCH  15  16
ATOM     16  CD  GLN A 189      -9.275  11.908  72.492  1.00 47.27     0.215 C 
ATOM     17  NE2 GLN A 189      -9.345  11.862  71.166  1.00 44.45    -0.370 N 
ATOM     18 2HE2 GLN A 189      -9.798  11.098  70.664  1.00  0.00     0.159 HD
ATOM     19 1HE2 GLN A 189      -8.916  12.638  70.661  1.00  0.00     0.159 HD
ATOM     20  OE1 GLN A 189      -8.728  12.829  73.098  1.00 41.09    -0.274 OA
ENDBRANCH  15  16
ENDBRANCH  14  15
ENDBRANCH  13  14
END_RES GLN A 189
BEGIN_RES ASN A 142
REMARK  2 active torsions:
REMARK  status: ('A' for Active; 'I' for Inactive)
REMARK    7  A    between atoms: CA   and  CB  
REMARK    8  A    between atoms: CB   and  CG  
REMARK       I    between atoms: CG   and  ND2 
ROOT
ATOM     21  CA  ASN A 142      -7.978  15.712  62.559  1.00 43.18     0.185 C 
ENDROOT
BRANCH  21  22
ATOM     22  CB  ASN A 142      -6.512  15.609  62.983  1.00 38.76     0.137 C 
BRANCH  22  23
ATOM     23  CG  ASN A 142      -6.346  15.426  64.480  1.00 50.71     0.217 C 
ATOM     24  ND2 ASN A 142      -6.502  14.192  64.945  1.00 55.08    -0.370 N 
ATOM     25 2HD2 ASN A 142      -6.722  13.401  64.341  1.00  0.00     0.159 HD
ATOM     26 1HD2 ASN A 142      -6.391  14.069  65.952  1.00  0.00     0.159 HD
ATOM     27  OD1 ASN A 142      -6.081  16.381  65.209  1.00 51.97    -0.274 OA
ENDBRANCH  22  23
ENDBRANCH  21  22
END_RES ASN A 142
BEGIN_RES LEU A  27
REMARK  2 active torsions:
REMARK  status: ('A' for Active; 'I' for Inactive)
REMARK    9  A    between atoms: CA   and  CB  
REMARK   10  A    between atoms: CB   and  CG  
ROOT
ATOM     28  CA  LEU A  27     -11.471  23.771  64.549  1.00 37.04     0.177 C 
ENDROOT
BRANCH  28  29
ATOM     29  CB  LEU A  27     -12.225  22.902  65.570  1.00 37.70     0.038 C 
BRANCH  29  30
ATOM     30  CG  LEU A  27     -12.506  23.394  66.990  1.00 36.32    -0.020 C 
ATOM     31  CD1 LEU A  27     -13.882  24.033  67.098  1.00 32.79     0.009 C 
ATOM     32  CD2 LEU A  27     -12.386  22.228  67.960  1.00 31.17     0.009 C 
ENDBRANCH  29  30
ENDBRANCH  28  29
END_RES LEU A  27
BEGIN_RES MET A  49
REMARK  3 active torsions:
REMARK  status: ('A' for Active; 'I' for Inactive)
REMARK   11  A    between atoms: CA   and  CB  
REMARK   12  A    between atoms: CB   and  CG  
REMARK   13  A    between atoms: CG   and  SD  
ROOT
ATOM     33  CA  MET A  49      -9.418  15.600  76.823  1.00 61.58     0.177 C 
ENDROOT
BRANCH  33  34
ATOM     34  CB  MET A  49      -8.930  15.410  75.386  1.00 62.15     0.045 C 
BRANCH  34  35
ATOM     35  CG  MET A  49      -9.640  16.301  74.379  1.00 60.24     0.076 C 
BRANCH  35  36
ATOM     36  SD  MET A  49     -11.172  17.011  75.010  1.00 77.15    -0.173 SA
ATOM     37  CE  MET A  49     -12.337  15.713  74.599  1.00 60.34     0.089 C 
ENDBRANCH  35  36
ENDBRANCH  34  35
ENDBRANCH  33  34
END_RES MET A  49
BEGIN_RES GLU A 166
REMARK  3 active torsions:
REMARK  status: ('A' for Active; 'I' for Inactive)
REMARK   14  A    between atoms: CA   and  CB  
REMARK   15  A    between atoms: CB   and  CG  
REMARK   16  A    between atoms: CG   and  CD  
ROOT
ATOM     38  CA  GLU A 166     -14.746   9.219  66.167  1.00 28.52     0.177 C 
ENDROOT
BRANCH  38  39
ATOM     39  CB  GLU A 166     -13.578   9.064  65.189  1.00 29.90     0.045 C 
BRANCH  39  40
ATOM     40  CG  GLU A 166     -13.602   7.810  64.336  1.00 36.08     0.116 C 
BRANCH  40  41
ATOM     41  CD  GLU A 166     -12.532   7.835  63.260  1.00 45.17     0.172 C 
ATOM     42  OE2 GLU A 166     -12.155   6.749  62.771  1.00 40.54    -0.648 OA
ATOM     43  OE1 GLU A 166     -12.074   8.940  62.896  1.00 50.70    -0.648 OA
ENDBRANCH  40  41
ENDBRANCH  39  40
ENDBRANCH  38  39
END_RES GLU A 166
BEGIN_RES HIS A 163
REMARK  2 active torsions:
REMARK  status: ('A' for Active; 'I' for Inactive)
REMARK   17  A    between atoms: CA   and  CB  
REMARK   18  A    between atoms: CB   and  CG  
ROOT
ATOM     44  CA  HIS A 163     -19.055  16.637  64.100  1.00 27.27     0.182 C 
ENDROOT
BRANCH  44  45
ATOM     45  CB  HIS A 163     -18.129  16.377  62.914  1.00 26.00     0.093 C 
BRANCH  45  46
ATOM     46  CG  HIS A 163     -17.096  15.329  63.183  1.00 26.66     0.028 A 
ATOM     47  ND1 HIS A 163     -15.752  15.619  63.281  1.00 26.97    -0.354 N 
ATOM     48  CE1 HIS A 163     -15.080  14.506  63.515  1.00 30.44     0.180 A 
ATOM     49  HD1 HIS A 163     -15.341  16.548  63.188  1.00  0.00     0.166 HD
ATOM     50  NE2 HIS A 163     -15.939  13.504  63.567  1.00 30.00    -0.360 N 
ATOM     51  CD2 HIS A 163     -17.207  13.992  63.362  1.00 29.24     0.114 A 
ATOM     52  HE2 HIS A 163     -15.699  12.527  63.733  1.00  0.00     0.166 HD
ENDBRANCH  45  46
ENDBRANCH  44  45
END_RES HIS A 163
BEGIN_RES HIS A 172
REMARK  2 active torsions:
REMARK  status: ('A' for Active; 'I' for Inactive)
REMARK   19  A    between atoms: CA   and  CB  
REMARK   20  A    between atoms: CB   and  CG  
ROOT
ATOM     53  CA  HIS A 172     -18.444   9.111  64.049  1.00 29.85     0.182 C 
ENDROOT
BRANCH  53  54
ATOM     54  CB  HIS A 172     -18.188  10.085  62.898  1.00 26.76     0.093 C 
BRANCH  54  55
ATOM     55  CG  HIS A 172     -16.867   9.881  62.226  1.00 28.76     0.028 A 
ATOM     56  CD2 HIS A 172     -15.619  10.276  62.574  1.00 29.36     0.114 A 
ATOM     57  NE2 HIS A 172     -14.762   9.812  61.605  1.00 33.77    -0.360 N 
ATOM     58  CE1 HIS A 172     -15.458   9.150  60.697  1.00 32.44     0.180 A 
ATOM     59  HE2 HIS A 172     -13.752   9.955  61.591  1.00  0.00     0.166 HD
ATOM     60  ND1 HIS A 172     -16.731   9.174  61.050  1.00 29.32    -0.354 N 
ATOM     61  HD1 HIS A 172     -17.495   8.738  60.533  1.00  0.00     0.166 HD
ENDBRANCH  54  55
ENDBRANCH  53  54
END_RES HIS A 172
BEGIN_RES THR A  26
REMARK  2 active torsions:
REMARK  status: ('A' for Active; 'I' for Inactive)
REMARK   21  A    between atoms: CA   and  CB  
REMARK   22  A    between atoms: CB   and  OG1 
ROOT
ATOM     62  CA  THR A  26      -8.224  25.031  66.060  1.00 43.98     0.205 C 
ENDROOT
BRANCH  62  63
ATOM     63  CB  THR A  26      -7.184  25.490  65.034  1.00 45.90     0.146 C 
ATOM     64  CG2 THR A  26      -7.853  26.018  63.763  1.00 47.20     0.042 C 
BRANCH  63  65
ATOM     65  OG1 THR A  26      -6.358  26.511  65.604  1.00 50.51    -0.393 OA
ATOM     66  HG1 THR A  26      -6.248  26.355  66.535  1.00  0.00     0.210 HD
ENDBRANCH  63  65
ENDBRANCH  62  63
END_RES THR A  26
ENDMDL
MODEL 8
REMARK VINA RESULT:      -6.5      2.365      4.858
REMARK  10 active torsions:
REMARK  status: ('A' for Active; 'I' for Inactive)
REMARK    1  A    between atoms: C2_2  and  O1_3 
REMARK    2  A    between atoms: C2_2  and  C4_5 
REMARK    3  A    between atoms: C6_8  and  C7_9 
REMARK    4  A    between atoms: C7_9  and  C9_11 
REMARK    5  A    between atoms: C9_11  and  C10_12 
REMARK    6  A    between atoms: C10_12  and  C11_13 
REMARK    7  A    between atoms: C13_16  and  C14_17 
REMARK    8  A    between atoms: C14_17  and  C15_18 
REMARK    9  A    between atoms: C15_18  and  O3_20 
REMARK   10  A    between atoms: C16_21  and  O4_22 
ROOT
HETATM    1  C1  UNL     1     -10.819  11.452  66.324  1.00  0.00     0.052 C 
HETATM    2  C2  UNL     1     -11.459  12.550  66.033  1.00  0.00     0.073 C 
ENDROOT
BRANCH   2   3
HETATM    3  O1  UNL     1     -12.566  12.472  65.185  1.00  0.00    -0.356 OA
HETATM    4  C3  UNL     1     -12.459  12.186  63.806  1.00  0.00     0.210 C 
ENDBRANCH   2   3
BRANCH   2   5
HETATM    5  C4  UNL     1     -11.081  13.844  66.544  1.00  0.00     0.052 A 
HETATM    6  C5  UNL     1     -10.272  14.682  65.841  1.00  0.00     0.134 A 
HETATM    7  N1  UNL     1      -9.900  15.913  66.306  1.00  0.00    -0.264 NA
HETATM    8  C6  UNL     1     -10.316  16.367  67.493  1.00  0.00     0.041 A 
HETATM    9  C18 UNL     1     -11.135  15.545  68.228  1.00  0.00     0.070 A 
HETATM   10  C19 UNL     1     -11.527  14.297  67.785  1.00  0.00     0.132 A 
HETATM   11  F1  UNL     1     -12.331  13.473  68.492  1.00  0.00    -0.205 F 
BRANCH   8  12
HETATM   12  C7  UNL     1      -9.916  17.677  67.982  1.00  0.00     0.034 C 
HETATM   13  C8  UNL     1     -10.219  18.790  66.972  1.00  0.00     0.016 C 
BRANCH  12  14
HETATM   14  C9  UNL     1     -10.630  18.059  69.285  1.00  0.00     0.011 C 
BRANCH  14  15
HETATM   15  C10 UNL     1      -9.854  19.177  69.890  1.00  0.00     0.007 C 
BRANCH  15  16
HETATM   16  C11 UNL     1      -8.571  18.800  70.536  1.00  0.00     0.016 C 
HETATM   17  C12 UNL     1      -8.566  18.988  72.034  1.00  0.00     0.275 C 
HETATM   18  N2  UNL     1      -7.497  18.256  72.650  1.00  0.00     0.091 N 
HETATM   19  C13 UNL     1      -6.230  18.384  71.988  1.00  0.00     0.258 C 
HETATM   20  H18 UNL     1      -7.703  17.234  72.743  1.00  0.00     0.316 HD
HETATM   21  C16 UNL     1      -6.183  19.376  70.887  1.00  0.00     0.152 C 
HETATM   22  C17 UNL     1      -7.356  19.450  69.986  1.00  0.00     0.040 C 
BRANCH  19  23
HETATM   23  C14 UNL     1      -5.670  17.027  71.591  1.00  0.00     0.148 C 
BRANCH  23  24
HETATM   24  C15 UNL     1      -6.507  15.913  72.030  1.00  0.00     0.141 C 
HETATM   25  O2  UNL     1      -7.446  15.536  71.311  1.00  0.00    -0.650 OA
BRANCH  24  26
HETATM   26  O3  UNL     1      -6.278  15.265  73.232  1.00  0.00    -0.776 OA
HETATM   27  H22 UNL     1      -5.439  15.486  73.751  1.00  0.00     0.167 HD
ENDBRANCH  24  26
ENDBRANCH  23  24
ENDBRANCH  19  23
BRANCH  21  28
HETATM   28  O4  UNL     1      -5.836  20.647  71.409  1.00  0.00    -0.393 OA
HETATM   29  H24 UNL     1      -6.545  21.261  71.098  1.00  0.00     0.210 HD
ENDBRANCH  21  28
ENDBRANCH  15  16
ENDBRANCH  14  15
ENDBRANCH  12  14
ENDBRANCH   8  12
ENDBRANCH   2   5
TORSDOF 10
BEGIN_RES HIS A  41
REMARK  2 active torsions:
REMARK  status: ('A' for Active; 'I' for Inactive)
REMARK    1  A    between atoms: CA   and  CB  
REMARK    2  A    between atoms: CB   and  CG  
ROOT
ATOM      1  CA  HIS A  41     -13.820  21.037  73.265  1.00 38.89     0.182 C 
ENDROOT
BRANCH   1   2
ATOM      2  CB  HIS A  41     -13.705  19.545  72.937  1.00 42.38     0.093 C 
BRANCH   2   3
ATOM      3  CG  HIS A  41     -14.111  19.196  71.540  1.00 37.90     0.028 A 
ATOM      4  CD2 HIS A  41     -15.074  18.368  71.070  1.00 37.33     0.114 A 
ATOM      5  NE2 HIS A  41     -15.020  18.423  69.698  1.00 41.88    -0.360 N 
ATOM      6  CE1 HIS A  41     -14.063  19.259  69.339  1.00 41.55     0.180 A 
ATOM      7  HE2 HIS A  41     -15.622  17.902  69.061  1.00  0.00     0.166 HD
ATOM      8  ND1 HIS A  41     -13.500  19.742  70.432  1.00 36.57    -0.354 N 
ATOM      9  HD1 HIS A  41     -12.733  20.414  70.452  1.00  0.00     0.166 HD
ENDBRANCH   2   3
ENDBRANCH   1   2
END_RES HIS A  41
BEGIN_RES CYS A 145
REMARK  1 active torsions:
REMARK  status: ('A' for Active; 'I' for Inactive)
REMARK    3  A    between atoms: CA   and  CB  
ROOT
ATOM     10  CA  CYS A 145     -14.607  19.162  64.101  1.00 29.71     0.186 C 
ENDROOT
BRANCH  10  11
ATOM     11  CB  CYS A 145     -14.100  19.110  65.541  1.00 31.75     0.120 C 
ATOM     12  SG  CYS A 145     -13.689  17.448  66.103  1.00 39.68    -0.095 SA
ENDBRANCH  10  11
END_RES CYS A 145
BEGIN_RES GLN A 189
REMARK  3 active torsions:
REMARK  status: ('A' for Active; 'I' for Inactive)
REMARK    4  A    between atoms: CA   and  CB  
REMARK    5  A    between atoms: CB   and  CG  
REMARK    6  A    between atoms: CG   and  CD  
REMARK       I    between atoms: CD   and  NE2 
ROOT
ATOM     13  CA  GLN A 189     -11.641  10.633  75.105  1.00 38.41     0.177 C 
ENDROOT
BRANCH  13  14
ATOM     14  CB  GLN A 189     -10.259  11.109  74.679  1.00 37.59     0.044 C 
BRANCH  14  15
ATOM     15  CG  GLN A 189     -10.076  11.169  73.171  1.00 45.60     0.105 C 
BRANCH  15  16
ATOM     16  CD  GLN A 189     -10.206  12.574  72.620  1.00 47.27     0.215 C 
ATOM     17  NE2 GLN A 189      -9.080  13.171  72.246  1.00 44.45    -0.370 N 
ATOM     18 2HE2 GLN A 189      -8.168  12.722  72.320  1.00  0.00     0.159 HD
ATOM     19 1HE2 GLN A 189      -9.168  14.118  71.876  1.00  0.00     0.159 HD
ATOM     20  OE1 GLN A 189     -11.308  13.117  72.532  1.00 41.09    -0.274 OA
ENDBRANCH  15  16
ENDBRANCH  14  15
ENDBRANCH  13  14
END_RES GLN A 189
BEGIN_RES ASN A 142
REMARK  2 active torsions:
REMARK  status: ('A' for Active; 'I' for Inactive)
REMARK    7  A    between atoms: CA   and  CB  
REMARK    8  A    between atoms: CB   and  CG  
REMARK       I    between atoms: CG   and  ND2 
ROOT
ATOM     21  CA  ASN A 142      -7.978  15.712  62.559  1.00 43.18     0.185 C 
ENDROOT
BRANCH  21  22
ATOM     22  CB  ASN A 142      -6.512  15.609  62.983  1.00 38.76     0.137 C 
BRANCH  22  23
ATOM     23  CG  ASN A 142      -6.329  15.702  64.486  1.00 50.71     0.217 C 
ATOM     24  ND2 ASN A 142      -5.709  14.683  65.070  1.00 55.08    -0.370 N 
ATOM     25 2HD2 ASN A 142      -5.369  13.874  64.548  1.00  0.00     0.159 HD
ATOM     26 1HD2 ASN A 142      -5.586  14.745  66.081  1.00  0.00     0.159 HD
ATOM     27  OD1 ASN A 142      -6.738  16.677  65.115  1.00 51.97    -0.274 OA
ENDBRANCH  22  23
ENDBRANCH  21  22
END_RES ASN A 142
BEGIN_RES LEU A  27
REMARK  2 active torsions:
REMARK  status: ('A' for Active; 'I' for Inactive)
REMARK    9  A    between atoms: CA   and  CB  
REMARK   10  A    between atoms: CB   and  CG  
ROOT
ATOM     28  CA  LEU A  27     -11.471  23.771  64.549  1.00 37.04     0.177 C 
ENDROOT
BRANCH  28  29
ATOM     29  CB  LEU A  27     -12.225  22.902  65.570  1.00 37.70     0.038 C 
BRANCH  29  30
ATOM     30  CG  LEU A  27     -12.481  23.382  66.999  1.00 36.32    -0.020 C 
ATOM     31  CD1 LEU A  27     -13.848  24.035  67.132  1.00 32.79     0.009 C 
ATOM     32  CD2 LEU A  27     -12.360  22.205  67.955  1.00 31.17     0.009 C 
ENDBRANCH  29  30
ENDBRANCH  28  29
END_RES LEU A  27
BEGIN_RES MET A  49
REMARK  3 active torsions:
REMARK  status: ('A' for Active; 'I' for Inactive)
REMARK   11  A    between atoms: CA   and  CB  
REMARK   12  A    between atoms: CB   and  CG  
REMARK   13  A    between atoms: CG   and  SD  
ROOT
ATOM     33  CA  MET A  49      -9.418  15.600  76.823  1.00 61.58     0.177 C 
ENDROOT
BRANCH  33  34
ATOM     34  CB  MET A  49      -8.930  15.410  75.386  1.00 62.15     0.045 C 
BRANCH  34  35
ATOM     35  CG  MET A  49      -9.807  16.094  74.349  1.00 60.24     0.076 C 
BRANCH  35  36
ATOM     36  SD  MET A  49     -11.301  16.823  75.048  1.00 77.15    -0.173 SA
ATOM     37  CE  MET A  49     -12.561  16.016  74.062  1.00 60.34     0.089 C 
ENDBRANCH  35  36
ENDBRANCH  34  35
ENDBRANCH  33  34
END_RES MET A  49
BEGIN_RES GLU A 166
REMARK  3 active torsions:
REMARK  status: ('A' for Active; 'I' for Inactive)
REMARK   14  A    between atoms: CA   and  CB  
REMARK   15  A    between atoms: CB   and  CG  
REMARK   16  A    between atoms: CG   and  CD  
ROOT
ATOM     38  CA  GLU A 166     -14.746   9.219  66.167  1.00 28.52     0.177 C 
ENDROOT
BRANCH  38  39
ATOM     39  CB  GLU A 166     -13.578   9.064  65.189  1.00 29.90     0.045 C 
BRANCH  39  40
ATOM     40  CG  GLU A 166     -13.598   7.806  64.341  1.00 36.08     0.116 C 
BRANCH  40  41
ATOM     41  CD  GLU A 166     -12.455   7.776  63.343  1.00 45.17     0.172 C 
ATOM     42  OE2 GLU A 166     -11.868   6.692  63.143  1.00 40.54    -0.648 OA
ATOM     43  OE1 GLU A 166     -12.150   8.834  62.750  1.00 50.70    -0.648 OA
ENDBRANCH  40  41
ENDBRANCH  39  40
ENDBRANCH  38  39
END_RES GLU A 166
BEGIN_RES HIS A 163
REMARK  2 active torsions:
REMARK  status: ('A' for Active; 'I' for Inactive)
REMARK   17  A    between atoms: CA   and  CB  
REMARK   18  A    between atoms: CB   and  CG  
ROOT
ATOM     44  CA  HIS A 163     -19.055  16.637  64.100  1.00 27.27     0.182 C 
ENDROOT
BRANCH  44  45
ATOM     45  CB  HIS A 163     -18.129  16.377  62.914  1.00 26.00     0.093 C 
BRANCH  45  46
ATOM     46  CG  HIS A 163     -17.096  15.329  63.183  1.00 26.66     0.028 A 
ATOM     47  ND1 HIS A 163     -15.749  15.613  63.245  1.00 26.97    -0.354 N 
ATOM     48  CE1 HIS A 163     -15.077  14.502  63.488  1.00 30.44     0.180 A 
ATOM     49  HD1 HIS A 163     -15.335  16.537  63.123  1.00  0.00     0.166 HD
ATOM     50  NE2 HIS A 163     -15.941  13.506  63.581  1.00 30.00    -0.360 N 
ATOM     51  CD2 HIS A 163     -17.210  13.996  63.393  1.00 29.24     0.114 A 
ATOM     52  HE2 HIS A 163     -15.703  12.531  63.762  1.00  0.00     0.166 HD
ENDBRANCH  45  46
ENDBRANCH  44  45
END_RES HIS A 163
BEGIN_RES HIS A 172
REMARK  2 active torsions:
REMARK  status: ('A' for Active; 'I' for Inactive)
REMARK   19  A    between atoms: CA   and  CB  
REMARK   20  A    between atoms: CB   and  CG  
ROOT
ATOM     53  CA  HIS A 172     -18.444   9.111  64.049  1.00 29.85     0.182 C 
ENDROOT
BRANCH  53  54
ATOM     54  CB  HIS A 172     -18.188  10.085  62.898  1.00 26.76     0.093 C 
BRANCH  54  55
ATOM     55  CG  HIS A 172     -16.870   9.876  62.221  1.00 28.76     0.028 A 
ATOM     56  CD2 HIS A 172     -15.617  10.248  62.576  1.00 29.36     0.114 A 
ATOM     57  NE2 HIS A 172     -14.766   9.791  61.599  1.00 33.77    -0.360 N 
ATOM     58  CE1 HIS A 172     -15.471   9.157  60.678  1.00 32.44     0.180 A 
ATOM     59  HE2 HIS A 172     -13.755   9.921  61.586  1.00  0.00     0.166 HD
ATOM     60  ND1 HIS A 172     -16.744   9.190  61.032  1.00 29.32    -0.354 N 
ATOM     61  HD1 HIS A 172     -17.513   8.774  60.507  1.00  0.00     0.166 HD
ENDBRANCH  54  55
ENDBRANCH  53  54
END_RES HIS A 172
BEGIN_RES THR A  26
REMARK  2 active torsions:
REMARK  status: ('A' for Active; 'I' for Inactive)
REMARK   21  A    between atoms: CA   and  CB  
REMARK   22  A    between atoms: CB   and  OG1 
ROOT
ATOM     62  CA  THR A  26      -8.224  25.031  66.060  1.00 43.98     0.205 C 
ENDROOT
BRANCH  62  63
ATOM     63  CB  THR A  26      -7.184  25.490  65.034  1.00 45.90     0.146 C 
ATOM     64  CG2 THR A  26      -7.853  26.095  63.798  1.00 47.20     0.042 C 
BRANCH  63  65
ATOM     65  OG1 THR A  26      -6.308  26.454  65.629  1.00 50.51    -0.393 OA
ATOM     66  HG1 THR A  26      -5.408  26.264  65.388  1.00  0.00     0.210 HD
ENDBRANCH  63  65
ENDBRANCH  62  63
END_RES THR A  26
ENDMDL
MODEL 9
REMARK VINA RESULT:      -6.4      2.389      3.712
REMARK  10 active torsions:
REMARK  status: ('A' for Active; 'I' for Inactive)
REMARK    1  A    between atoms: C2_2  and  O1_3 
REMARK    2  A    between atoms: C2_2  and  C4_5 
REMARK    3  A    between atoms: C6_8  and  C7_9 
REMARK    4  A    between atoms: C7_9  and  C9_11 
REMARK    5  A    between atoms: C9_11  and  C10_12 
REMARK    6  A    between atoms: C10_12  and  C11_13 
REMARK    7  A    between atoms: C13_16  and  C14_17 
REMARK    8  A    between atoms: C14_17  and  C15_18 
REMARK    9  A    between atoms: C15_18  and  O3_20 
REMARK   10  A    between atoms: C16_21  and  O4_22 
ROOT
HETATM    1  C1  UNL     1     -10.077  18.317  69.126  1.00  0.00     0.052 C 
HETATM    2  C2  UNL     1     -10.355  17.763  70.274  1.00  0.00     0.073 C 
ENDROOT
BRANCH   2   3
HETATM    3  O1  UNL     1     -10.324  18.558  71.423  1.00  0.00    -0.356 OA
HETATM    4  C3  UNL     1      -9.127  19.068  71.972  1.00  0.00     0.210 C 
ENDBRANCH   2   3
BRANCH   2   5
HETATM    5  C4  UNL     1     -10.694  16.370  70.418  1.00  0.00     0.052 A 
HETATM    6  C5  UNL     1     -11.952  15.911  70.177  1.00  0.00     0.134 A 
HETATM    7  N1  UNL     1     -12.296  14.594  70.307  1.00  0.00    -0.264 NA
HETATM    8  C6  UNL     1     -11.404  13.672  70.683  1.00  0.00     0.041 A 
HETATM    9  C18 UNL     1     -10.124  14.102  70.934  1.00  0.00     0.070 A 
HETATM   10  C19 UNL     1      -9.746  15.425  70.811  1.00  0.00     0.132 A 
HETATM   11  F1  UNL     1      -8.493  15.869  71.053  1.00  0.00    -0.205 F 
BRANCH   8  12
HETATM   12  C7  UNL     1     -11.777  12.273  70.821  1.00  0.00     0.034 C 
HETATM   13  C8  UNL     1     -12.922  12.075  71.821  1.00  0.00     0.016 C 
BRANCH  12  14
HETATM   14  C9  UNL     1     -12.241  11.658  69.494  1.00  0.00     0.011 C 
BRANCH  14  15
HETATM   15  C10 UNL     1     -11.048  11.013  68.877  1.00  0.00     0.007 C 
BRANCH  15  16
HETATM   16  C11 UNL     1     -10.703  11.466  67.506  1.00  0.00     0.016 C 
HETATM   17  C12 UNL     1     -10.259  10.351  66.591  1.00  0.00     0.275 C 
HETATM   18  N2  UNL     1     -10.326  10.746  65.213  1.00  0.00     0.091 N 
HETATM   19  C13 UNL     1      -9.784  12.047  64.941  1.00  0.00     0.258 C 
HETATM   20  H18 UNL     1     -11.299  10.723  64.828  1.00  0.00     0.316 HD
HETATM   21  C16 UNL     1      -9.091  12.700  66.078  1.00  0.00     0.152 C 
HETATM   22  C17 UNL     1      -9.702  12.558  67.420  1.00  0.00     0.040 C 
BRANCH  19  23
HETATM   23  C14 UNL     1     -10.809  12.948  64.271  1.00  0.00     0.148 C 
BRANCH  23  24
HETATM   24  C15 UNL     1     -12.097  12.292  64.061  1.00  0.00     0.141 C 
HETATM   25  O2  UNL     1     -13.007  12.456  64.890  1.00  0.00    -0.650 OA
BRANCH  24  26
HETATM   26  O3  UNL     1     -12.328  11.487  62.958  1.00  0.00    -0.776 OA
HETATM   27  H22 UNL     1     -13.119  10.858  62.973  1.00  0.00     0.167 HD
ENDBRANCH  24  26
ENDBRANCH  23  24
ENDBRANCH  19  23
BRANCH  21  28
HETATM   28  O4  UNL     1      -7.724  12.327  66.077  1.00  0.00    -0.393 OA
HETATM   29  H24 UNL     1      -7.456  12.309  65.126  1.00  0.00     0.210 HD
ENDBRANCH  21  28
ENDBRANCH  15  16
ENDBRANCH  14  15
ENDBRANCH  12  14
ENDBRANCH   8  12
ENDBRANCH   2   5
TORSDOF 10
BEGIN_RES HIS A  41
REMARK  2 active torsions:
REMARK  status: ('A' for Active; 'I' for Inactive)
REMARK    1  A    between atoms: CA   and  CB  
REMARK    2  A    between atoms: CB   and  CG  
ROOT
ATOM      1  CA  HIS A  41     -13.820  21.037  73.265  1.00 38.89     0.182 C 
ENDROOT
BRANCH   1   2
ATOM      2  CB  HIS A  41     -13.705  19.545  72.937  1.00 42.38     0.093 C 
BRANCH   2   3
ATOM      3  CG  HIS A  41     -14.038  19.206  71.518  1.00 37.90     0.028 A 
ATOM      4  CD2 HIS A  41     -15.079  18.526  70.982  1.00 37.33     0.114 A 
ATOM      5  NE2 HIS A  41     -14.896  18.512  69.621  1.00 41.88    -0.360 N 
ATOM      6  CE1 HIS A  41     -13.784  19.165  69.331  1.00 41.55     0.180 A 
ATOM      7  HE2 HIS A  41     -15.517  18.069  68.944  1.00  0.00     0.166 HD
ATOM      8  ND1 HIS A  41     -13.248  19.597  70.458  1.00 36.57    -0.354 N 
ATOM      9  HD1 HIS A  41     -12.385  20.136  70.532  1.00  0.00     0.166 HD
ENDBRANCH   2   3
ENDBRANCH   1   2
END_RES HIS A  41
BEGIN_RES CYS A 145
REMARK  1 active torsions:
REMARK  status: ('A' for Active; 'I' for Inactive)
REMARK    3  A    between atoms: CA   and  CB  
ROOT
ATOM     10  CA  CYS A 145     -14.607  19.162  64.101  1.00 29.71     0.186 C 
ENDROOT
BRANCH  10  11
ATOM     11  CB  CYS A 145     -14.100  19.110  65.541  1.00 31.75     0.120 C 
ATOM     12  SG  CYS A 145     -13.504  17.484  66.040  1.00 39.68    -0.095 SA
ENDBRANCH  10  11
END_RES CYS A 145
BEGIN_RES GLN A 189
REMARK  3 active torsions:
REMARK  status: ('A' for Active; 'I' for Inactive)
REMARK    4  A    between atoms: CA   and  CB  
REMARK    5  A    between atoms: CB   and  CG  
REMARK    6  A    between atoms: CG   and  CD  
REMARK       I    between atoms: CD   and  NE2 
ROOT
ATOM     13  CA  GLN A 189     -11.641  10.633  75.105  1.00 38.41     0.177 C 
ENDROOT
BRANCH  13  14
ATOM     14  CB  GLN A 189     -10.259  11.109  74.679  1.00 37.59     0.044 C 
BRANCH  14  15
ATOM     15  CG  GLN A 189      -9.859  10.644  73.288  1.00 45.60     0.105 C 
BRANCH  15  16
ATOM     16  CD  GLN A 189      -8.575  11.286  72.802  1.00 47.27     0.215 C 
ATOM     17  NE2 GLN A 189      -8.158  12.356  73.470  1.00 44.45    -0.370 N 
ATOM     18 2HE2 GLN A 189      -8.663  12.738  74.269  1.00  0.00     0.159 HD
ATOM     19 1HE2 GLN A 189      -7.294  12.788  73.143  1.00  0.00     0.159 HD
ATOM     20  OE1 GLN A 189      -7.965  10.824  71.838  1.00 41.09    -0.274 OA
ENDBRANCH  15  16
ENDBRANCH  14  15
ENDBRANCH  13  14
END_RES GLN A 189
BEGIN_RES ASN A 142
REMARK  2 active torsions:
REMARK  status: ('A' for Active; 'I' for Inactive)
REMARK    7  A    between atoms: CA   and  CB  
REMARK    8  A    between atoms: CB   and  CG  
REMARK       I    between atoms: CG   and  ND2 
ROOT
ATOM     21  CA  ASN A 142      -7.978  15.712  62.559  1.00 43.18     0.185 C 
ENDROOT
BRANCH  21  22
ATOM     22  CB  ASN A 142      -6.512  15.609  62.983  1.00 38.76     0.137 C 
BRANCH  22  23
ATOM     23  CG  ASN A 142      -6.263  14.476  63.961  1.00 50.71     0.217 C 
ATOM     24  ND2 ASN A 142      -5.892  14.825  65.187  1.00 55.08    -0.370 N 
ATOM     25 2HD2 ASN A 142      -5.776  15.798  65.470  1.00  0.00     0.159 HD
ATOM     26 1HD2 ASN A 142      -5.725  14.063  65.845  1.00  0.00     0.159 HD
ATOM     27  OD1 ASN A 142      -6.403  13.303  63.619  1.00 51.97    -0.274 OA
ENDBRANCH  22  23
ENDBRANCH  21  22
END_RES ASN A 142
BEGIN_RES LEU A  27
REMARK  2 active torsions:
REMARK  status: ('A' for Active; 'I' for Inactive)
REMARK    9  A    between atoms: CA   and  CB  
REMARK   10  A    between atoms: CB   and  CG  
ROOT
ATOM     28  CA  LEU A  27     -11.471  23.771  64.549  1.00 37.04     0.177 C 
ENDROOT
BRANCH  28  29
ATOM     29  CB  LEU A  27     -12.225  22.902  65.570  1.00 37.70     0.038 C 
BRANCH  29  30
ATOM     30  CG  LEU A  27     -12.583  23.426  66.961  1.00 36.32    -0.020 C 
ATOM     31  CD1 LEU A  27     -13.709  24.446  66.902  1.00 32.79     0.009 C 
ATOM     32  CD2 LEU A  27     -12.972  22.258  67.854  1.00 31.17     0.009 C 
ENDBRANCH  29  30
ENDBRANCH  28  29
END_RES LEU A  27
BEGIN_RES MET A  49
REMARK  3 active torsions:
REMARK  status: ('A' for Active; 'I' for Inactive)
REMARK   11  A    between atoms: CA   and  CB  
REMARK   12  A    between atoms: CB   and  CG  
REMARK   13  A    between atoms: CG   and  SD  
ROOT
ATOM     33  CA  MET A  49      -9.418  15.600  76.823  1.00 61.58     0.177 C 
ENDROOT
BRANCH  33  34
ATOM     34  CB  MET A  49      -8.930  15.410  75.386  1.00 62.15     0.045 C 
BRANCH  34  35
ATOM     35  CG  MET A  49      -9.687  16.250  74.370  1.00 60.24     0.076 C 
BRANCH  35  36
ATOM     36  SD  MET A  49     -11.366  16.655  74.888  1.00 77.15    -0.173 SA
ATOM     37  CE  MET A  49     -12.295  15.372  74.050  1.00 60.34     0.089 C 
ENDBRANCH  35  36
ENDBRANCH  34  35
ENDBRANCH  33  34
END_RES MET A  49
BEGIN_RES GLU A 166
REMARK  3 active torsions:
REMARK  status: ('A' for Active; 'I' for Inactive)
REMARK   14  A    between atoms: CA   and  CB  
REMARK   15  A    between atoms: CB   and  CG  
REMARK   16  A    between atoms: CG   and  CD  
ROOT
ATOM     38  CA  GLU A 166     -14.746   9.219  66.167  1.00 28.52     0.177 C 
ENDROOT
BRANCH  38  39
ATOM     39  CB  GLU A 166     -13.578   9.064  65.189  1.00 29.90     0.045 C 
BRANCH  39  40
ATOM     40  CG  GLU A 166     -13.627   7.834  64.302  1.00 36.08     0.116 C 
BRANCH  40  41
ATOM     41  CD  GLU A 166     -12.453   7.780  63.342  1.00 45.17     0.172 C 
ATOM     42  OE2 GLU A 166     -11.598   8.689  63.396  1.00 40.54    -0.648 OA
ATOM     43  OE1 GLU A 166     -12.379   6.824  62.540  1.00 50.70    -0.648 OA
ENDBRANCH  40  41
ENDBRANCH  39  40
ENDBRANCH  38  39
END_RES GLU A 166
BEGIN_RES HIS A 163
REMARK  2 active torsions:
REMARK  status: ('A' for Active; 'I' for Inactive)
REMARK   17  A    between atoms: CA   and  CB  
REMARK   18  A    between atoms: CB   and  CG  
ROOT
ATOM     44  CA  HIS A 163     -19.055  16.637  64.100  1.00 27.27     0.182 C 
ENDROOT
BRANCH  44  45
ATOM     45  CB  HIS A 163     -18.129  16.377  62.914  1.00 26.00     0.093 C 
BRANCH  45  46
ATOM     46  CG  HIS A 163     -17.042  15.393  63.211  1.00 26.66     0.028 A 
ATOM     47  ND1 HIS A 163     -17.283  14.044  63.362  1.00 26.97    -0.354 N 
ATOM     48  CE1 HIS A 163     -16.147  13.423  63.623  1.00 30.44     0.180 A 
ATOM     49  HD1 HIS A 163     -18.196  13.596  63.284  1.00  0.00     0.166 HD
ATOM     50  NE2 HIS A 163     -15.178  14.321  63.651  1.00 30.00    -0.360 N 
ATOM     51  CD2 HIS A 163     -15.712  15.561  63.397  1.00 29.24     0.114 A 
ATOM     52  HE2 HIS A 163     -14.194  14.125  63.832  1.00  0.00     0.166 HD
ENDBRANCH  45  46
ENDBRANCH  44  45
END_RES HIS A 163
BEGIN_RES HIS A 172
REMARK  2 active torsions:
REMARK  status: ('A' for Active; 'I' for Inactive)
REMARK   19  A    between atoms: CA   and  CB  
REMARK   20  A    between atoms: CB   and  CG  
ROOT
ATOM     53  CA  HIS A 172     -18.444   9.111  64.049  1.00 29.85     0.182 C 
ENDROOT
BRANCH  53  54
ATOM     54  CB  HIS A 172     -18.188  10.085  62.898  1.00 26.76     0.093 C 
BRANCH  54  55
ATOM     55  CG  HIS A 172     -16.868   9.878  62.223  1.00 28.76     0.028 A 
ATOM     56  CD2 HIS A 172     -15.616  10.249  62.582  1.00 29.36     0.114 A 
ATOM     57  NE2 HIS A 172     -14.763   9.795  61.605  1.00 33.77    -0.360 N 
ATOM     58  CE1 HIS A 172     -15.467   9.164  60.681  1.00 32.44     0.180 A 
ATOM     59  HE2 HIS A 172     -13.752   9.925  61.594  1.00  0.00     0.166 HD
ATOM     60  ND1 HIS A 172     -16.740   9.196  61.032  1.00 29.32    -0.354 N 
ATOM     61  HD1 HIS A 172     -17.509   8.782  60.504  1.00  0.00     0.166 HD
ENDBRANCH  54  55
ENDBRANCH  53  54
END_RES HIS A 172
BEGIN_RES THR A  26
REMARK  2 active torsions:
REMARK  status: ('A' for Active; 'I' for Inactive)
REMARK   21  A    between atoms: CA   and  CB  
REMARK   22  A    between atoms: CB   and  OG1 
ROOT
ATOM     62  CA  THR A  26      -8.224  25.031  66.060  1.00 43.98     0.205 C 
ENDROOT
BRANCH  62  63
ATOM     63  CB  THR A  26      -7.184  25.490  65.034  1.00 45.90     0.146 C 
ATOM     64  CG2 THR A  26      -7.853  26.035  63.771  1.00 47.20     0.042 C 
BRANCH  63  65
ATOM     65  OG1 THR A  26      -6.347  26.498  65.610  1.00 50.51    -0.393 OA
ATOM     66  HG1 THR A  26      -6.576  27.350  65.255  1.00  0.00     0.210 HD
ENDBRANCH  63  65
ENDBRANCH  62  63
END_RES THR A  26
ENDMDL
