MODEL 1
REMARK VINA RESULT:      -7.5      0.000      0.000
REMARK  14 active torsions:
REMARK  status: ('A' for Active; 'I' for Inactive)
REMARK    1  A    between atoms: C2_2  and  O1_3 
REMARK    2  A    between atoms: O1_3  and  C3_4 
REMARK    3  A    between atoms: C3_4  and  C4_6 
REMARK    4  A    between atoms: C5_7  and  C6_8 
REMARK    5  A    between atoms: C6_8  and  C7_9 
REMARK    6  A    between atoms: C6_8  and  N2_14 
REMARK    7  A    between atoms: C7_9  and  C8_10 
REMARK    8  A    between atoms: C8_10  and  C9_11 
REMARK       I    between atoms: C9_11  and  N1_12 
REMARK       I    between atoms: N2_14  and  C10_15 
REMARK    9  A    between atoms: C10_15  and  C11_17 
REMARK   10  A    between atoms: C11_17  and  C12_18 
REMARK   11  A    between atoms: C11_17  and  N3_25 
REMARK   12  A    between atoms: C12_18  and  C13_19 
REMARK   13  A    between atoms: C23_30  and  N4_31 
REMARK       I    between atoms: N4_31  and  C24_32 
REMARK   14  A    between atoms: C24_32  and  C25_34 
ROOT
HETATM    1  C1  UNL     1      -4.589  20.887  71.609  1.00  0.00     0.034 C 
HETATM    2  C2  UNL     1      -5.504  19.689  71.738  1.00  0.00     0.174 C 
ENDROOT
BRANCH   2   3
HETATM    3  O1  UNL     1      -6.851  20.090  71.543  1.00  0.00    -0.319 OA
BRANCH   3   4
HETATM    4  C3  UNL     1      -7.935  19.340  71.963  1.00  0.00     0.282 C 
HETATM    5  O2  UNL     1      -8.168  19.290  73.192  1.00  0.00    -0.260 OA
BRANCH   4   6
HETATM    6  C4  UNL     1      -8.757  18.639  70.985  1.00  0.00     0.080 C 
HETATM    7  C5  UNL     1      -9.948  18.209  71.286  1.00  0.00     0.004 C 
BRANCH   7   8
HETATM    8  C6  UNL     1     -10.836  17.490  70.341  1.00  0.00     0.108 C 
BRANCH   8   9
HETATM    9  C7  UNL     1     -11.656  16.501  71.149  1.00  0.00     0.038 C 
BRANCH   9  10
HETATM   10  C8  UNL     1     -10.993  15.151  71.189  1.00  0.00     0.105 C 
BRANCH  10  11
HETATM   11  C9  UNL     1     -12.011  14.096  71.023  1.00  0.00     0.215 C 
HETATM   12  N1  UNL     1     -11.847  13.113  70.022  1.00  0.00    -0.370 N 
HETATM   13  H13 UNL     1     -11.237  13.297  69.212  1.00  0.00     0.159 HD
HETATM   14  H14 UNL     1     -12.335  12.209  70.095  1.00  0.00     0.159 HD
HETATM   15  O3  UNL     1     -13.014  14.063  71.758  1.00  0.00    -0.274 OA
ENDBRANCH  10  11
ENDBRANCH   9  10
ENDBRANCH   8   9
BRANCH   8  16
HETATM   16  N2  UNL     1     -10.123  16.843  69.267  1.00  0.00    -0.351 N 
HETATM   17  C10 UNL     1     -10.193  17.274  67.915  1.00  0.00     0.241 C 
HETATM   18  O4  UNL     1     -10.916  18.264  67.670  1.00  0.00    -0.271 OA
HETATM   19  H15 UNL     1      -9.535  16.025  69.518  1.00  0.00     0.163 HD
BRANCH  17  20
HETATM   20  C11 UNL     1      -9.404  16.513  66.907  1.00  0.00     0.188 C 
BRANCH  20  21
HETATM   21  C12 UNL     1      -8.660  17.414  65.990  1.00  0.00     0.074 C 
BRANCH  21  22
HETATM   22  C13 UNL     1      -7.782  18.335  66.706  1.00  0.00    -0.056 A 
HETATM   23  C14 UNL     1      -7.864  19.703  66.624  1.00  0.00     0.007 A 
HETATM   24  C15 UNL     1      -6.993  20.529  67.311  1.00  0.00     0.001 A 
HETATM   25  C16 UNL     1      -6.001  20.006  68.111  1.00  0.00     0.000 A 
HETATM   26  C17 UNL     1      -5.914  18.635  68.197  1.00  0.00     0.001 A 
HETATM   27  C18 UNL     1      -6.776  17.806  67.518  1.00  0.00     0.007 A 
ENDBRANCH  21  22
ENDBRANCH  20  21
BRANCH  20  28
HETATM   28  N3  UNL     1     -10.139  15.441  66.310  1.00  0.00    -0.309 N 
HETATM   29  C19 UNL     1     -10.723  15.580  65.079  1.00  0.00     0.096 A 
HETATM   30  C20 UNL     1     -11.424  14.588  64.457  1.00  0.00     0.026 A 
HETATM   31  C21 UNL     1     -11.576  13.368  65.069  1.00  0.00    -0.028 A 
HETATM   32  C22 UNL     1     -12.322  12.248  64.454  1.00  0.00     0.050 C 
HETATM   33  C23 UNL     1     -11.002  13.189  66.309  1.00  0.00     0.110 A 
HETATM   34  C29 UNL     1     -10.302  14.239  66.884  1.00  0.00     0.275 A 
HETATM   35  O7  UNL     1      -9.793  14.029  68.027  1.00  0.00    -0.265 OA
BRANCH  33  36
HETATM   36  N4  UNL     1     -11.145  11.936  66.957  1.00  0.00    -0.317 N 
HETATM   37  C24 UNL     1     -10.135  10.946  66.881  1.00  0.00     0.277 C 
HETATM   38  O5  UNL     1      -9.094  11.192  66.223  1.00  0.00    -0.266 OA
HETATM   39  H29 UNL     1     -12.006  11.735  67.499  1.00  0.00     0.169 HD
BRANCH  37  40
HETATM   40  C25 UNL     1     -10.304   9.658  67.559  1.00  0.00     0.154 A 
HETATM   41  C26 UNL     1     -10.450   8.431  66.947  1.00  0.00     0.074 A 
HETATM   42  C27 UNL     1     -10.580   7.481  67.941  1.00  0.00     0.077 A 
HETATM   43  C28 UNL     1     -10.762   6.014  67.807  1.00  0.00     0.079 C 
HETATM   44  O6  UNL     1     -10.511   8.139  69.072  1.00  0.00    -0.218 OA
HETATM   45  N5  UNL     1     -10.351   9.407  68.873  1.00  0.00    -0.123 NA
ENDBRANCH  37  40
ENDBRANCH  33  36
ENDBRANCH  20  28
ENDBRANCH  17  20
ENDBRANCH   8  16
ENDBRANCH   7   8
ENDBRANCH   4   6
ENDBRANCH   3   4
ENDBRANCH   2   3
TORSDOF 14
BEGIN_RES HIS A  41
REMARK  2 active torsions:
REMARK  status: ('A' for Active; 'I' for Inactive)
REMARK    1  A    between atoms: CA   and  CB  
REMARK    2  A    between atoms: CB   and  CG  
ROOT
ATOM      1  CA  HIS A  41     -13.820  21.037  73.265  1.00 38.89     0.182 C 
ENDROOT
BRANCH   1   2
ATOM      2  CB  HIS A  41     -13.705  19.545  72.937  1.00 42.38     0.093 C 
BRANCH   2   3
ATOM      3  CG  HIS A  41     -14.072  19.201  71.528  1.00 37.90     0.028 A 
ATOM      4  CD2 HIS A  41     -15.021  18.375  71.027  1.00 37.33     0.114 A 
ATOM      5  NE2 HIS A  41     -14.929  18.436  69.658  1.00 41.88    -0.360 N 
ATOM      6  CE1 HIS A  41     -13.961  19.274  69.329  1.00 41.55     0.180 A 
ATOM      7  HE2 HIS A  41     -15.513  17.918  69.002  1.00  0.00     0.166 HD
ATOM      8  ND1 HIS A  41     -13.430  19.752  70.439  1.00 36.57    -0.354 N 
ATOM      9  HD1 HIS A  41     -12.664  20.424  70.484  1.00  0.00     0.166 HD
ENDBRANCH   2   3
ENDBRANCH   1   2
END_RES HIS A  41
BEGIN_RES CYS A 145
REMARK  1 active torsions:
REMARK  status: ('A' for Active; 'I' for Inactive)
REMARK    3  A    between atoms: CA   and  CB  
ROOT
ATOM     10  CA  CYS A 145     -14.607  19.162  64.101  1.00 29.71     0.186 C 
ENDROOT
BRANCH  10  11
ATOM     11  CB  CYS A 145     -14.100  19.110  65.541  1.00 31.75     0.120 C 
ATOM     12  SG  CYS A 145     -13.840  17.436  66.156  1.00 39.68    -0.095 SA
ENDBRANCH  10  11
END_RES CYS A 145
BEGIN_RES GLN A 189
REMARK  3 active torsions:
REMARK  status: ('A' for Active; 'I' for Inactive)
REMARK    4  A    between atoms: CA   and  CB  
REMARK    5  A    between atoms: CB   and  CG  
REMARK    6  A    between atoms: CG   and  CD  
REMARK       I    between atoms: CD   and  NE2 
ROOT
ATOM     13  CA  GLN A 189     -11.641  10.633  75.105  1.00 38.41     0.177 C 
ENDROOT
BRANCH  13  14
ATOM     14  CB  GLN A 189     -10.259  11.109  74.679  1.00 37.59     0.044 C 
BRANCH  14  15
ATOM     15  CG  GLN A 189     -10.168  11.465  73.204  1.00 45.60     0.105 C 
BRANCH  15  16
ATOM     16  CD  GLN A 189     -10.845  10.444  72.312  1.00 47.27     0.215 C 
ATOM     17  NE2 GLN A 189     -10.166   9.328  72.066  1.00 44.45    -0.370 N 
ATOM     18 2HE2 GLN A 189      -9.237   9.154  72.450  1.00  0.00     0.159 HD
ATOM     19 1HE2 GLN A 189     -10.621   8.641  71.465  1.00  0.00     0.159 HD
ATOM     20  OE1 GLN A 189     -11.966  10.656  71.849  1.00 41.09    -0.274 OA
ENDBRANCH  15  16
ENDBRANCH  14  15
ENDBRANCH  13  14
END_RES GLN A 189
BEGIN_RES ASN A 142
REMARK  2 active torsions:
REMARK  status: ('A' for Active; 'I' for Inactive)
REMARK    7  A    between atoms: CA   and  CB  
REMARK    8  A    between atoms: CB   and  CG  
REMARK       I    between atoms: CG   and  ND2 
ROOT
ATOM     21  CA  ASN A 142      -7.978  15.712  62.559  1.00 43.18     0.185 C 
ENDROOT
BRANCH  21  22
ATOM     22  CB  ASN A 142      -6.512  15.609  62.983  1.00 38.76     0.137 C 
BRANCH  22  23
ATOM     23  CG  ASN A 142      -6.348  15.122  64.410  1.00 50.71     0.217 C 
ATOM     24  ND2 ASN A 142      -7.210  14.200  64.823  1.00 55.08    -0.370 N 
ATOM     25 2HD2 ASN A 142      -7.949  13.831  64.224  1.00  0.00     0.159 HD
ATOM     26 1HD2 ASN A 142      -7.099  13.872  65.783  1.00  0.00     0.159 HD
ATOM     27  OD1 ASN A 142      -5.457  15.567  65.133  1.00 51.97    -0.274 OA
ENDBRANCH  22  23
ENDBRANCH  21  22
END_RES ASN A 142
BEGIN_RES LEU A  27
REMARK  2 active torsions:
REMARK  status: ('A' for Active; 'I' for Inactive)
REMARK    9  A    between atoms: CA   and  CB  
REMARK   10  A    between atoms: CB   and  CG  
ROOT
ATOM     28  CA  LEU A  27     -11.471  23.771  64.549  1.00 37.04     0.177 C 
ENDROOT
BRANCH  28  29
ATOM     29  CB  LEU A  27     -12.225  22.902  65.570  1.00 37.70     0.038 C 
BRANCH  29  30
ATOM     30  CG  LEU A  27     -12.506  23.394  66.990  1.00 36.32    -0.020 C 
ATOM     31  CD1 LEU A  27     -13.886  24.022  67.101  1.00 32.79     0.009 C 
ATOM     32  CD2 LEU A  27     -12.373  22.230  67.961  1.00 31.17     0.009 C 
ENDBRANCH  29  30
ENDBRANCH  28  29
END_RES LEU A  27
BEGIN_RES MET A  49
REMARK  3 active torsions:
REMARK  status: ('A' for Active; 'I' for Inactive)
REMARK   11  A    between atoms: CA   and  CB  
REMARK   12  A    between atoms: CB   and  CG  
REMARK   13  A    between atoms: CG   and  SD  
ROOT
ATOM     33  CA  MET A  49      -9.418  15.600  76.823  1.00 61.58     0.177 C 
ENDROOT
BRANCH  33  34
ATOM     34  CB  MET A  49      -8.930  15.410  75.386  1.00 62.15     0.045 C 
BRANCH  34  35
ATOM     35  CG  MET A  49      -9.517  16.413  74.406  1.00 60.24     0.076 C 
BRANCH  35  36
ATOM     36  SD  MET A  49     -11.103  17.087  74.938  1.00 77.15    -0.173 SA
ATOM     37  CE  MET A  49     -12.171  15.671  74.682  1.00 60.34     0.089 C 
ENDBRANCH  35  36
ENDBRANCH  34  35
ENDBRANCH  33  34
END_RES MET A  49
BEGIN_RES GLU A 166
REMARK  3 active torsions:
REMARK  status: ('A' for Active; 'I' for Inactive)
REMARK   14  A    between atoms: CA   and  CB  
REMARK   15  A    between atoms: CB   and  CG  
REMARK   16  A    between atoms: CG   and  CD  
ROOT
ATOM     38  CA  GLU A 166     -14.746   9.219  66.167  1.00 28.52     0.177 C 
ENDROOT
BRANCH  38  39
ATOM     39  CB  GLU A 166     -13.578   9.064  65.189  1.00 29.90     0.045 C 
BRANCH  39  40
ATOM     40  CG  GLU A 166     -13.629   7.837  64.299  1.00 36.08     0.116 C 
BRANCH  40  41
ATOM     41  CD  GLU A 166     -12.375   7.694  63.457  1.00 45.17     0.172 C 
ATOM     42  OE2 GLU A 166     -11.572   6.778  63.736  1.00 40.54    -0.648 OA
ATOM     43  OE1 GLU A 166     -12.196   8.489  62.509  1.00 50.70    -0.648 OA
ENDBRANCH  40  41
ENDBRANCH  39  40
ENDBRANCH  38  39
END_RES GLU A 166
BEGIN_RES HIS A 163
REMARK  2 active torsions:
REMARK  status: ('A' for Active; 'I' for Inactive)
REMARK   17  A    between atoms: CA   and  CB  
REMARK   18  A    between atoms: CB   and  CG  
ROOT
ATOM     44  CA  HIS A 163     -19.055  16.637  64.100  1.00 27.27     0.182 C 
ENDROOT
BRANCH  44  45
ATOM     45  CB  HIS A 163     -18.129  16.377  62.914  1.00 26.00     0.093 C 
BRANCH  45  46
ATOM     46  CG  HIS A 163     -17.094  15.331  63.184  1.00 26.66     0.028 A 
ATOM     47  ND1 HIS A 163     -15.749  15.620  63.258  1.00 26.97    -0.354 N 
ATOM     48  CE1 HIS A 163     -15.075  14.509  63.499  1.00 30.44     0.180 A 
ATOM     49  HD1 HIS A 163     -15.337  16.546  63.144  1.00  0.00     0.166 HD
ATOM     50  NE2 HIS A 163     -15.935  13.510  63.579  1.00 30.00    -0.360 N 
ATOM     51  CD2 HIS A 163     -17.205  13.997  63.385  1.00 29.24     0.114 A 
ATOM     52  HE2 HIS A 163     -15.695  12.535  63.756  1.00  0.00     0.166 HD
ENDBRANCH  45  46
ENDBRANCH  44  45
END_RES HIS A 163
BEGIN_RES HIS A 172
REMARK  2 active torsions:
REMARK  status: ('A' for Active; 'I' for Inactive)
REMARK   19  A    between atoms: CA   and  CB  
REMARK   20  A    between atoms: CB   and  CG  
ROOT
ATOM     53  CA  HIS A 172     -18.444   9.111  64.049  1.00 29.85     0.182 C 
ENDROOT
BRANCH  53  54
ATOM     54  CB  HIS A 172     -18.188  10.085  62.898  1.00 26.76     0.093 C 
BRANCH  54  55
ATOM     55  CG  HIS A 172     -16.883   9.857  62.201  1.00 28.76     0.028 A 
ATOM     56  CD2 HIS A 172     -15.622  10.221  62.531  1.00 29.36     0.114 A 
ATOM     57  NE2 HIS A 172     -14.791   9.746  61.545  1.00 33.77    -0.360 N 
ATOM     58  CE1 HIS A 172     -15.517   9.107  60.644  1.00 32.44     0.180 A 
ATOM     59  HE2 HIS A 172     -13.779   9.866  61.513  1.00  0.00     0.166 HD
ATOM     60  ND1 HIS A 172     -16.784   9.156  61.018  1.00 29.32    -0.354 N 
ATOM     61  HD1 HIS A 172     -17.566   8.740  60.512  1.00  0.00     0.166 HD
ENDBRANCH  54  55
ENDBRANCH  53  54
END_RES HIS A 172
BEGIN_RES THR A  26
REMARK  2 active torsions:
REMARK  status: ('A' for Active; 'I' for Inactive)
REMARK   21  A    between atoms: CA   and  CB  
REMARK   22  A    between atoms: CB   and  OG1 
ROOT
ATOM     62  CA  THR A  26      -8.224  25.031  66.060  1.00 43.98     0.205 C 
ENDROOT
BRANCH  62  63
ATOM     63  CB  THR A  26      -7.184  25.490  65.034  1.00 45.90     0.146 C 
ATOM     64  CG2 THR A  26      -7.853  26.044  63.775  1.00 47.20     0.042 C 
BRANCH  63  65
ATOM     65  OG1 THR A  26      -6.341  26.492  65.613  1.00 50.51    -0.393 OA
ATOM     66  HG1 THR A  26      -5.554  26.592  65.090  1.00  0.00     0.210 HD
ENDBRANCH  63  65
ENDBRANCH  62  63
END_RES THR A  26
ENDMDL
MODEL 2
REMARK VINA RESULT:      -7.5      2.255      4.851
REMARK  14 active torsions:
REMARK  status: ('A' for Active; 'I' for Inactive)
REMARK    1  A    between atoms: C2_2  and  O1_3 
REMARK    2  A    between atoms: O1_3  and  C3_4 
REMARK    3  A    between atoms: C3_4  and  C4_6 
REMARK    4  A    between atoms: C5_7  and  C6_8 
REMARK    5  A    between atoms: C6_8  and  C7_9 
REMARK    6  A    between atoms: C6_8  and  N2_14 
REMARK    7  A    between atoms: C7_9  and  C8_10 
REMARK    8  A    between atoms: C8_10  and  C9_11 
REMARK       I    between atoms: C9_11  and  N1_12 
REMARK       I    between atoms: N2_14  and  C10_15 
REMARK    9  A    between atoms: C10_15  and  C11_17 
REMARK   10  A    between atoms: C11_17  and  C12_18 
REMARK   11  A    between atoms: C11_17  and  N3_25 
REMARK   12  A    between atoms: C12_18  and  C13_19 
REMARK   13  A    between atoms: C23_30  and  N4_31 
REMARK       I    between atoms: N4_31  and  C24_32 
REMARK   14  A    between atoms: C24_32  and  C25_34 
ROOT
HETATM    1  C1  UNL     1     -11.352   6.288  69.792  1.00  0.00     0.034 C 
HETATM    2  C2  UNL     1     -12.208   6.904  70.877  1.00  0.00     0.174 C 
ENDROOT
BRANCH   2   3
HETATM    3  O1  UNL     1     -12.343   8.299  70.648  1.00  0.00    -0.319 OA
BRANCH   3   4
HETATM    4  C3  UNL     1     -13.299   9.080  71.272  1.00  0.00     0.282 C 
HETATM    5  O2  UNL     1     -14.438   8.588  71.436  1.00  0.00    -0.260 OA
BRANCH   4   6
HETATM    6  C4  UNL     1     -12.961  10.429  71.711  1.00  0.00     0.080 C 
HETATM    7  C5  UNL     1     -12.331  11.257  70.928  1.00  0.00     0.004 C 
BRANCH   7   8
HETATM    8  C6  UNL     1     -11.957  12.640  71.311  1.00  0.00     0.108 C 
BRANCH   8   9
HETATM    9  C7  UNL     1     -12.981  13.125  72.322  1.00  0.00     0.038 C 
BRANCH   9  10
HETATM   10  C8  UNL     1     -12.425  14.242  73.164  1.00  0.00     0.105 C 
BRANCH  10  11
HETATM   11  C9  UNL     1     -13.176  15.482  72.895  1.00  0.00     0.215 C 
HETATM   12  N1  UNL     1     -13.426  16.394  73.945  1.00  0.00    -0.370 N 
HETATM   13  H13 UNL     1     -13.398  16.075  74.924  1.00  0.00     0.159 HD
HETATM   14  H14 UNL     1     -13.636  17.381  73.739  1.00  0.00     0.159 HD
HETATM   15  O3  UNL     1     -13.592  15.735  71.750  1.00  0.00    -0.274 OA
ENDBRANCH  10  11
ENDBRANCH   9  10
ENDBRANCH   8   9
BRANCH   8  16
HETATM   16  N2  UNL     1     -11.850  13.535  70.185  1.00  0.00    -0.351 N 
HETATM   17  C10 UNL     1     -10.616  13.855  69.560  1.00  0.00     0.241 C 
HETATM   18  O4  UNL     1      -9.586  13.322  70.027  1.00  0.00    -0.271 OA
HETATM   19  H15 UNL     1     -12.732  13.954  69.832  1.00  0.00     0.163 HD
BRANCH  17  20
HETATM   20  C11 UNL     1     -10.650  14.795  68.405  1.00  0.00     0.188 C 
BRANCH  20  21
HETATM   21  C12 UNL     1     -11.365  16.055  68.737  1.00  0.00     0.074 C 
BRANCH  21  22
HETATM   22  C13 UNL     1     -10.549  17.240  68.489  1.00  0.00    -0.056 A 
HETATM   23  C14 UNL     1     -10.120  17.636  67.247  1.00  0.00     0.007 A 
HETATM   24  C15 UNL     1      -9.331  18.759  67.071  1.00  0.00     0.001 A 
HETATM   25  C16 UNL     1      -8.943  19.529  68.145  1.00  0.00     0.000 A 
HETATM   26  C17 UNL     1      -9.371  19.137  69.393  1.00  0.00     0.001 A 
HETATM   27  C18 UNL     1     -10.155  18.022  69.578  1.00  0.00     0.007 A 
ENDBRANCH  21  22
ENDBRANCH  20  21
BRANCH  20  28
HETATM   28  N3  UNL     1     -10.993  14.159  67.171  1.00  0.00    -0.309 N 
HETATM   29  C19 UNL     1     -12.295  13.873  66.858  1.00  0.00     0.096 A 
HETATM   30  C20 UNL     1     -12.680  13.278  65.691  1.00  0.00     0.026 A 
HETATM   31  C21 UNL     1     -11.738  12.933  64.755  1.00  0.00    -0.028 A 
HETATM   32  C22 UNL     1     -12.083  12.287  63.469  1.00  0.00     0.050 C 
HETATM   33  C23 UNL     1     -10.416  13.206  65.033  1.00  0.00     0.110 A 
HETATM   34  C29 UNL     1     -10.094  13.811  66.238  1.00  0.00     0.275 A 
HETATM   35  O7  UNL     1      -8.865  14.041  66.451  1.00  0.00    -0.265 OA
BRANCH  33  36
HETATM   36  N4  UNL     1      -9.427  12.857  64.077  1.00  0.00    -0.317 N 
HETATM   37  C24 UNL     1      -8.795  11.590  64.099  1.00  0.00     0.277 C 
HETATM   38  O5  UNL     1      -9.122  10.764  64.986  1.00  0.00    -0.266 OA
HETATM   39  H29 UNL     1      -9.158  13.541  63.347  1.00  0.00     0.169 HD
BRANCH  37  40
HETATM   40  C25 UNL     1      -7.776  11.251  63.102  1.00  0.00     0.154 A 
HETATM   41  C26 UNL     1      -7.588  10.015  62.520  1.00  0.00     0.074 A 
HETATM   42  C27 UNL     1      -6.530  10.124  61.640  1.00  0.00     0.077 A 
HETATM   43  C28 UNL     1      -5.933   9.080  60.770  1.00  0.00     0.079 C 
HETATM   44  O6  UNL     1      -6.131  11.369  61.717  1.00  0.00    -0.218 OA
HETATM   45  N5  UNL     1      -6.841  12.042  62.562  1.00  0.00    -0.123 NA
ENDBRANCH  37  40
ENDBRANCH  33  36
ENDBRANCH  20  28
ENDBRANCH  17  20
ENDBRANCH   8  16
ENDBRANCH   7   8
ENDBRANCH   4   6
ENDBRANCH   3   4
ENDBRANCH   2   3
TORSDOF 14
BEGIN_RES HIS A  41
REMARK  2 active torsions:
REMARK  status: ('A' for Active; 'I' for Inactive)
REMARK    1  A    between atoms: CA   and  CB  
REMARK    2  A    between atoms: CB   and  CG  
ROOT
ATOM      1  CA  HIS A  41     -13.820  21.037  73.265  1.00 38.89     0.182 C 
ENDROOT
BRANCH   1   2
ATOM      2  CB  HIS A  41     -13.705  19.545  72.937  1.00 42.38     0.093 C 
BRANCH   2   3
ATOM      3  CG  HIS A  41     -14.062  19.203  71.525  1.00 37.90     0.028 A 
ATOM      4  CD2 HIS A  41     -13.452  19.498  70.352  1.00 37.33     0.114 A 
ATOM      5  NE2 HIS A  41     -14.202  18.930  69.352  1.00 41.88    -0.360 N 
ATOM      6  CE1 HIS A  41     -15.232  18.302  69.891  1.00 41.55     0.180 A 
ATOM      7  HE2 HIS A  41     -13.996  18.983  68.354  1.00  0.00     0.166 HD
ATOM      8  ND1 HIS A  41     -15.170  18.449  71.202  1.00 36.57    -0.354 N 
ATOM      9  HD1 HIS A  41     -15.837  18.065  71.870  1.00  0.00     0.166 HD
ENDBRANCH   2   3
ENDBRANCH   1   2
END_RES HIS A  41
BEGIN_RES CYS A 145
REMARK  1 active torsions:
REMARK  status: ('A' for Active; 'I' for Inactive)
REMARK    3  A    between atoms: CA   and  CB  
ROOT
ATOM     10  CA  CYS A 145     -14.607  19.162  64.101  1.00 29.71     0.186 C 
ENDROOT
BRANCH  10  11
ATOM     11  CB  CYS A 145     -14.100  19.110  65.541  1.00 31.75     0.120 C 
ATOM     12  SG  CYS A 145     -13.740  17.442  66.121  1.00 39.68    -0.095 SA
ENDBRANCH  10  11
END_RES CYS A 145
BEGIN_RES GLN A 189
REMARK  3 active torsions:
REMARK  status: ('A' for Active; 'I' for Inactive)
REMARK    4  A    between atoms: CA   and  CB  
REMARK    5  A    between atoms: CB   and  CG  
REMARK    6  A    between atoms: CG   and  CD  
REMARK       I    between atoms: CD   and  NE2 
ROOT
ATOM     13  CA  GLN A 189     -11.641  10.633  75.105  1.00 38.41     0.177 C 
ENDROOT
BRANCH  13  14
ATOM     14  CB  GLN A 189     -10.259  11.109  74.679  1.00 37.59     0.044 C 
BRANCH  14  15
ATOM     15  CG  GLN A 189      -9.797  10.524  73.354  1.00 45.60     0.105 C 
BRANCH  15  16
ATOM     16  CD  GLN A 189      -9.220   9.130  73.498  1.00 47.27     0.215 C 
ATOM     17  NE2 GLN A 189      -8.274   8.973  74.417  1.00 44.45    -0.370 N 
ATOM     18 2HE2 GLN A 189      -7.941   9.739  75.002  1.00  0.00     0.159 HD
ATOM     19 1HE2 GLN A 189      -7.885   8.035  74.513  1.00  0.00     0.159 HD
ATOM     20  OE1 GLN A 189      -9.621   8.206  72.791  1.00 41.09    -0.274 OA
ENDBRANCH  15  16
ENDBRANCH  14  15
ENDBRANCH  13  14
END_RES GLN A 189
BEGIN_RES ASN A 142
REMARK  2 active torsions:
REMARK  status: ('A' for Active; 'I' for Inactive)
REMARK    7  A    between atoms: CA   and  CB  
REMARK    8  A    between atoms: CB   and  CG  
REMARK       I    between atoms: CG   and  ND2 
ROOT
ATOM     21  CA  ASN A 142      -7.978  15.712  62.559  1.00 43.18     0.185 C 
ENDROOT
BRANCH  21  22
ATOM     22  CB  ASN A 142      -6.512  15.609  62.983  1.00 38.76     0.137 C 
BRANCH  22  23
ATOM     23  CG  ASN A 142      -6.348  15.391  64.475  1.00 50.71     0.217 C 
ATOM     24  ND2 ASN A 142      -6.374  14.131  64.895  1.00 55.08    -0.370 N 
ATOM     25 2HD2 ASN A 142      -6.499  13.343  64.259  1.00  0.00     0.159 HD
ATOM     26 1HD2 ASN A 142      -6.264  13.984  65.899  1.00  0.00     0.159 HD
ATOM     27  OD1 ASN A 142      -6.197  16.342  65.242  1.00 51.97    -0.274 OA
ENDBRANCH  22  23
ENDBRANCH  21  22
END_RES ASN A 142
BEGIN_RES LEU A  27
REMARK  2 active torsions:
REMARK  status: ('A' for Active; 'I' for Inactive)
REMARK    9  A    between atoms: CA   and  CB  
REMARK   10  A    between atoms: CB   and  CG  
ROOT
ATOM     28  CA  LEU A  27     -11.471  23.771  64.549  1.00 37.04     0.177 C 
ENDROOT
BRANCH  28  29
ATOM     29  CB  LEU A  27     -12.225  22.902  65.570  1.00 37.70     0.038 C 
BRANCH  29  30
ATOM     30  CG  LEU A  27     -12.486  23.384  66.997  1.00 36.32    -0.020 C 
ATOM     31  CD1 LEU A  27     -13.840  24.064  67.119  1.00 32.79     0.009 C 
ATOM     32  CD2 LEU A  27     -12.397  22.203  67.952  1.00 31.17     0.009 C 
ENDBRANCH  29  30
ENDBRANCH  28  29
END_RES LEU A  27
BEGIN_RES MET A  49
REMARK  3 active torsions:
REMARK  status: ('A' for Active; 'I' for Inactive)
REMARK   11  A    between atoms: CA   and  CB  
REMARK   12  A    between atoms: CB   and  CG  
REMARK   13  A    between atoms: CG   and  SD  
ROOT
ATOM     33  CA  MET A  49      -9.418  15.600  76.823  1.00 61.58     0.177 C 
ENDROOT
BRANCH  33  34
ATOM     34  CB  MET A  49      -8.930  15.410  75.386  1.00 62.15     0.045 C 
BRANCH  34  35
ATOM     35  CG  MET A  49      -9.654  16.286  74.376  1.00 60.24     0.076 C 
BRANCH  35  36
ATOM     36  SD  MET A  49      -9.057  16.072  72.688  1.00 77.15    -0.173 SA
ATOM     37  CE  MET A  49      -7.707  17.249  72.658  1.00 60.34     0.089 C 
ENDBRANCH  35  36
ENDBRANCH  34  35
ENDBRANCH  33  34
END_RES MET A  49
BEGIN_RES GLU A 166
REMARK  3 active torsions:
REMARK  status: ('A' for Active; 'I' for Inactive)
REMARK   14  A    between atoms: CA   and  CB  
REMARK   15  A    between atoms: CB   and  CG  
REMARK   16  A    between atoms: CG   and  CD  
ROOT
ATOM     38  CA  GLU A 166     -14.746   9.219  66.167  1.00 28.52     0.177 C 
ENDROOT
BRANCH  38  39
ATOM     39  CB  GLU A 166     -13.578   9.064  65.189  1.00 29.90     0.045 C 
BRANCH  39  40
ATOM     40  CG  GLU A 166     -13.594   7.803  64.346  1.00 36.08     0.116 C 
BRANCH  40  41
ATOM     41  CD  GLU A 166     -12.392   7.721  63.424  1.00 45.17     0.172 C 
ATOM     42  OE2 GLU A 166     -11.255   7.635  63.936  1.00 40.54    -0.648 OA
ATOM     43  OE1 GLU A 166     -12.582   7.731  62.189  1.00 50.70    -0.648 OA
ENDBRANCH  40  41
ENDBRANCH  39  40
ENDBRANCH  38  39
END_RES GLU A 166
BEGIN_RES HIS A 163
REMARK  2 active torsions:
REMARK  status: ('A' for Active; 'I' for Inactive)
REMARK   17  A    between atoms: CA   and  CB  
REMARK   18  A    between atoms: CB   and  CG  
ROOT
ATOM     44  CA  HIS A 163     -19.055  16.637  64.100  1.00 27.27     0.182 C 
ENDROOT
BRANCH  44  45
ATOM     45  CB  HIS A 163     -18.129  16.377  62.914  1.00 26.00     0.093 C 
BRANCH  45  46
ATOM     46  CG  HIS A 163     -17.107  15.317  63.177  1.00 26.66     0.028 A 
ATOM     47  ND1 HIS A 163     -15.758  15.589  63.252  1.00 26.97    -0.354 N 
ATOM     48  CE1 HIS A 163     -15.097  14.469  63.487  1.00 30.44     0.180 A 
ATOM     49  HD1 HIS A 163     -15.335  16.511  63.145  1.00  0.00     0.166 HD
ATOM     50  NE2 HIS A 163     -15.970  13.480  63.561  1.00 30.00    -0.360 N 
ATOM     51  CD2 HIS A 163     -17.234  13.983  63.370  1.00 29.24     0.114 A 
ATOM     52  HE2 HIS A 163     -15.742  12.500  63.732  1.00  0.00     0.166 HD
ENDBRANCH  45  46
ENDBRANCH  44  45
END_RES HIS A 163
BEGIN_RES HIS A 172
REMARK  2 active torsions:
REMARK  status: ('A' for Active; 'I' for Inactive)
REMARK   19  A    between atoms: CA   and  CB  
REMARK   20  A    between atoms: CB   and  CG  
ROOT
ATOM     53  CA  HIS A 172     -18.444   9.111  64.049  1.00 29.85     0.182 C 
ENDROOT
BRANCH  53  54
ATOM     54  CB  HIS A 172     -18.188  10.085  62.898  1.00 26.76     0.093 C 
BRANCH  54  55
ATOM     55  CG  HIS A 172     -16.880   9.861  62.206  1.00 28.76     0.028 A 
ATOM     56  CD2 HIS A 172     -15.618  10.206  62.553  1.00 29.36     0.114 A 
ATOM     57  NE2 HIS A 172     -14.784   9.746  61.562  1.00 33.77    -0.360 N 
ATOM     58  CE1 HIS A 172     -15.509   9.135  60.641  1.00 32.44     0.180 A 
ATOM     59  HE2 HIS A 172     -13.771   9.858  61.541  1.00  0.00     0.166 HD
ATOM     60  ND1 HIS A 172     -16.778   9.187  61.007  1.00 29.32    -0.354 N 
ATOM     61  HD1 HIS A 172     -17.560   8.791  60.485  1.00  0.00     0.166 HD
ENDBRANCH  54  55
ENDBRANCH  53  54
END_RES HIS A 172
BEGIN_RES THR A  26
REMARK  2 active torsions:
REMARK  status: ('A' for Active; 'I' for Inactive)
REMARK   21  A    between atoms: CA   and  CB  
REMARK   22  A    between atoms: CB   and  OG1 
ROOT
ATOM     62  CA  THR A  26      -8.224  25.031  66.060  1.00 43.98     0.205 C 
ENDROOT
BRANCH  62  63
ATOM     63  CB  THR A  26      -7.184  25.490  65.034  1.00 45.90     0.146 C 
ATOM     64  CG2 THR A  26      -7.853  26.019  63.764  1.00 47.20     0.042 C 
BRANCH  63  65
ATOM     65  OG1 THR A  26      -6.357  26.510  65.604  1.00 50.51    -0.393 OA
ATOM     66  HG1 THR A  26      -5.552  26.589  65.106  1.00  0.00     0.210 HD
ENDBRANCH  63  65
ENDBRANCH  62  63
END_RES THR A  26
ENDMDL
MODEL 3
REMARK VINA RESULT:      -7.5      2.092      6.172
REMARK  14 active torsions:
REMARK  status: ('A' for Active; 'I' for Inactive)
REMARK    1  A    between atoms: C2_2  and  O1_3 
REMARK    2  A    between atoms: O1_3  and  C3_4 
REMARK    3  A    between atoms: C3_4  and  C4_6 
REMARK    4  A    between atoms: C5_7  and  C6_8 
REMARK    5  A    between atoms: C6_8  and  C7_9 
REMARK    6  A    between atoms: C6_8  and  N2_14 
REMARK    7  A    between atoms: C7_9  and  C8_10 
REMARK    8  A    between atoms: C8_10  and  C9_11 
REMARK       I    between atoms: C9_11  and  N1_12 
REMARK       I    between atoms: N2_14  and  C10_15 
REMARK    9  A    between atoms: C10_15  and  C11_17 
REMARK   10  A    between atoms: C11_17  and  C12_18 
REMARK   11  A    between atoms: C11_17  and  N3_25 
REMARK   12  A    between atoms: C12_18  and  C13_19 
REMARK   13  A    between atoms: C23_30  and  N4_31 
REMARK       I    between atoms: N4_31  and  C24_32 
REMARK   14  A    between atoms: C24_32  and  C25_34 
ROOT
HETATM    1  C1  UNL     1      -5.069  19.221  71.254  1.00  0.00     0.034 C 
HETATM    2  C2  UNL     1      -6.295  19.961  70.764  1.00  0.00     0.174 C 
ENDROOT
BRANCH   2   3
HETATM    3  O1  UNL     1      -7.189  20.179  71.845  1.00  0.00    -0.319 OA
BRANCH   3   4
HETATM    4  C3  UNL     1      -8.171  19.277  72.211  1.00  0.00     0.282 C 
HETATM    5  O2  UNL     1      -8.538  19.268  73.407  1.00  0.00    -0.260 OA
BRANCH   4   6
HETATM    6  C4  UNL     1      -8.741  18.379  71.214  1.00  0.00     0.080 C 
HETATM    7  C5  UNL     1     -10.008  18.078  71.219  1.00  0.00     0.004 C 
BRANCH   7   8
HETATM    8  C6  UNL     1     -10.651  17.172  70.237  1.00  0.00     0.108 C 
BRANCH   8   9
HETATM    9  C7  UNL     1     -11.331  16.064  71.019  1.00  0.00     0.038 C 
BRANCH   9  10
HETATM   10  C8  UNL     1     -12.571  15.584  70.312  1.00  0.00     0.105 C 
BRANCH  10  11
HETATM   11  C9  UNL     1     -13.498  14.987  71.293  1.00  0.00     0.215 C 
HETATM   12  N1  UNL     1     -13.345  13.635  71.671  1.00  0.00    -0.370 N 
HETATM   13  H13 UNL     1     -12.840  12.980  71.056  1.00  0.00     0.159 HD
HETATM   14  H14 UNL     1     -13.735  13.296  72.561  1.00  0.00     0.159 HD
HETATM   15  O3  UNL     1     -14.413  15.665  71.793  1.00  0.00    -0.274 OA
ENDBRANCH  10  11
ENDBRANCH   9  10
ENDBRANCH   8   9
BRANCH   8  16
HETATM   16  N2  UNL     1      -9.733  16.650  69.255  1.00  0.00    -0.351 N 
HETATM   17  C10 UNL     1      -9.586  17.203  67.955  1.00  0.00     0.241 C 
HETATM   18  O4  UNL     1     -10.299  18.190  67.672  1.00  0.00    -0.271 OA
HETATM   19  H15 UNL     1      -9.161  15.829  69.535  1.00  0.00     0.163 HD
BRANCH  17  20
HETATM   20  C11 UNL     1      -8.599  16.563  67.040  1.00  0.00     0.188 C 
BRANCH  20  21
HETATM   21  C12 UNL     1      -8.632  15.080  67.139  1.00  0.00     0.074 C 
BRANCH  21  22
HETATM   22  C13 UNL     1      -9.855  14.512  66.580  1.00  0.00    -0.056 A 
HETATM   23  C14 UNL     1     -10.304  14.747  65.304  1.00  0.00     0.007 A 
HETATM   24  C15 UNL     1     -11.481  14.197  64.832  1.00  0.00     0.001 A 
HETATM   25  C16 UNL     1     -12.256  13.386  65.630  1.00  0.00     0.000 A 
HETATM   26  C17 UNL     1     -11.812  13.146  66.911  1.00  0.00     0.001 A 
HETATM   27  C18 UNL     1     -10.641  13.688  67.389  1.00  0.00     0.007 A 
ENDBRANCH  21  22
ENDBRANCH  20  21
BRANCH  20  28
HETATM   28  N3  UNL     1      -7.314  17.188  67.072  1.00  0.00    -0.309 N 
HETATM   29  C19 UNL     1      -6.359  16.803  67.976  1.00  0.00     0.096 A 
HETATM   30  C20 UNL     1      -5.114  17.357  68.043  1.00  0.00     0.026 A 
HETATM   31  C21 UNL     1      -4.760  18.358  67.174  1.00  0.00    -0.028 A 
HETATM   32  C22 UNL     1      -3.428  19.003  67.189  1.00  0.00     0.050 C 
HETATM   33  C23 UNL     1      -5.694  18.773  66.249  1.00  0.00     0.110 A 
HETATM   34  C29 UNL     1      -6.942  18.168  66.235  1.00  0.00     0.275 A 
HETATM   35  O7  UNL     1      -7.768  18.585  65.367  1.00  0.00    -0.265 OA
BRANCH  33  36
HETATM   36  N4  UNL     1      -5.348  19.807  65.340  1.00  0.00    -0.317 N 
HETATM   37  C24 UNL     1      -5.674  21.159  65.605  1.00  0.00     0.277 C 
HETATM   38  O5  UNL     1      -6.281  21.441  66.667  1.00  0.00    -0.266 OA
HETATM   39  H29 UNL     1      -4.848  19.572  64.464  1.00  0.00     0.169 HD
BRANCH  37  40
HETATM   40  C25 UNL     1      -5.307  22.211  64.652  1.00  0.00     0.154 A 
HETATM   41  C26 UNL     1      -4.315  23.154  64.825  1.00  0.00     0.074 A 
HETATM   42  C27 UNL     1      -4.296  23.952  63.698  1.00  0.00     0.077 A 
HETATM   43  C28 UNL     1      -3.416  25.107  63.393  1.00  0.00     0.079 C 
HETATM   44  O6  UNL     1      -5.237  23.484  62.916  1.00  0.00    -0.218 OA
HETATM   45  N5  UNL     1      -5.838  22.472  63.452  1.00  0.00    -0.123 NA
ENDBRANCH  37  40
ENDBRANCH  33  36
ENDBRANCH  20  28
ENDBRANCH  17  20
ENDBRANCH   8  16
ENDBRANCH   7   8
ENDBRANCH   4   6
ENDBRANCH   3   4
ENDBRANCH   2   3
TORSDOF 14
BEGIN_RES HIS A  41
REMARK  2 active torsions:
REMARK  status: ('A' for Active; 'I' for Inactive)
REMARK    1  A    between atoms: CA   and  CB  
REMARK    2  A    between atoms: CB   and  CG  
ROOT
ATOM      1  CA  HIS A  41     -13.820  21.037  73.265  1.00 38.89     0.182 C 
ENDROOT
BRANCH   1   2
ATOM      2  CB  HIS A  41     -13.705  19.545  72.937  1.00 42.38     0.093 C 
BRANCH   2   3
ATOM      3  CG  HIS A  41     -14.066  19.202  71.526  1.00 37.90     0.028 A 
ATOM      4  CD2 HIS A  41     -13.440  19.465  70.354  1.00 37.33     0.114 A 
ATOM      5  NE2 HIS A  41     -14.204  18.914  69.355  1.00 41.88    -0.360 N 
ATOM      6  CE1 HIS A  41     -15.258  18.328  69.894  1.00 41.55     0.180 A 
ATOM      7  HE2 HIS A  41     -13.991  18.951  68.358  1.00  0.00     0.166 HD
ATOM      8  ND1 HIS A  41     -15.198  18.485  71.204  1.00 36.57    -0.354 N 
ATOM      9  HD1 HIS A  41     -15.882  18.130  71.872  1.00  0.00     0.166 HD
ENDBRANCH   2   3
ENDBRANCH   1   2
END_RES HIS A  41
BEGIN_RES CYS A 145
REMARK  1 active torsions:
REMARK  status: ('A' for Active; 'I' for Inactive)
REMARK    3  A    between atoms: CA   and  CB  
ROOT
ATOM     10  CA  CYS A 145     -14.607  19.162  64.101  1.00 29.71     0.186 C 
ENDROOT
BRANCH  10  11
ATOM     11  CB  CYS A 145     -14.100  19.110  65.541  1.00 31.75     0.120 C 
ATOM     12  SG  CYS A 145     -13.517  17.481  66.044  1.00 39.68    -0.095 SA
ENDBRANCH  10  11
END_RES CYS A 145
BEGIN_RES GLN A 189
REMARK  3 active torsions:
REMARK  status: ('A' for Active; 'I' for Inactive)
REMARK    4  A    between atoms: CA   and  CB  
REMARK    5  A    between atoms: CB   and  CG  
REMARK    6  A    between atoms: CG   and  CD  
REMARK       I    between atoms: CD   and  NE2 
ROOT
ATOM     13  CA  GLN A 189     -11.641  10.633  75.105  1.00 38.41     0.177 C 
ENDROOT
BRANCH  13  14
ATOM     14  CB  GLN A 189     -10.259  11.109  74.679  1.00 37.59     0.044 C 
BRANCH  14  15
ATOM     15  CG  GLN A 189      -9.987  10.931  73.194  1.00 45.60     0.105 C 
BRANCH  15  16
ATOM     16  CD  GLN A 189     -10.148  12.218  72.411  1.00 47.27     0.215 C 
ATOM     17  NE2 GLN A 189      -9.735  12.199  71.148  1.00 44.45    -0.370 N 
ATOM     18 2HE2 GLN A 189      -9.328  11.370  70.714  1.00  0.00     0.159 HD
ATOM     19 1HE2 GLN A 189      -9.843  13.066  70.620  1.00  0.00     0.159 HD
ATOM     20  OE1 GLN A 189     -10.639  13.218  72.934  1.00 41.09    -0.274 OA
ENDBRANCH  15  16
ENDBRANCH  14  15
ENDBRANCH  13  14
END_RES GLN A 189
BEGIN_RES ASN A 142
REMARK  2 active torsions:
REMARK  status: ('A' for Active; 'I' for Inactive)
REMARK    7  A    between atoms: CA   and  CB  
REMARK    8  A    between atoms: CB   and  CG  
REMARK       I    between atoms: CG   and  ND2 
ROOT
ATOM     21  CA  ASN A 142      -7.978  15.712  62.559  1.00 43.18     0.185 C 
ENDROOT
BRANCH  21  22
ATOM     22  CB  ASN A 142      -6.512  15.609  62.983  1.00 38.76     0.137 C 
BRANCH  22  23
ATOM     23  CG  ASN A 142      -6.311  14.702  64.182  1.00 50.71     0.217 C 
ATOM     24  ND2 ASN A 142      -5.358  15.054  65.037  1.00 55.08    -0.370 N 
ATOM     25 2HD2 ASN A 142      -4.783  15.887  64.906  1.00  0.00     0.159 HD
ATOM     26 1HD2 ASN A 142      -5.223  14.443  65.843  1.00  0.00     0.159 HD
ATOM     27  OD1 ASN A 142      -7.004  13.697  64.339  1.00 51.97    -0.274 OA
ENDBRANCH  22  23
ENDBRANCH  21  22
END_RES ASN A 142
BEGIN_RES LEU A  27
REMARK  2 active torsions:
REMARK  status: ('A' for Active; 'I' for Inactive)
REMARK    9  A    between atoms: CA   and  CB  
REMARK   10  A    between atoms: CB   and  CG  
ROOT
ATOM     28  CA  LEU A  27     -11.471  23.771  64.549  1.00 37.04     0.177 C 
ENDROOT
BRANCH  28  29
ATOM     29  CB  LEU A  27     -12.225  22.902  65.570  1.00 37.70     0.038 C 
BRANCH  29  30
ATOM     30  CG  LEU A  27     -12.596  23.431  66.955  1.00 36.32    -0.020 C 
ATOM     31  CD1 LEU A  27     -13.736  24.434  66.884  1.00 32.79     0.009 C 
ATOM     32  CD2 LEU A  27     -12.972  22.264  67.856  1.00 31.17     0.009 C 
ENDBRANCH  29  30
ENDBRANCH  28  29
END_RES LEU A  27
BEGIN_RES MET A  49
REMARK  3 active torsions:
REMARK  status: ('A' for Active; 'I' for Inactive)
REMARK   11  A    between atoms: CA   and  CB  
REMARK   12  A    between atoms: CB   and  CG  
REMARK   13  A    between atoms: CG   and  SD  
ROOT
ATOM     33  CA  MET A  49      -9.418  15.600  76.823  1.00 61.58     0.177 C 
ENDROOT
BRANCH  33  34
ATOM     34  CB  MET A  49      -8.930  15.410  75.386  1.00 62.15     0.045 C 
BRANCH  34  35
ATOM     35  CG  MET A  49      -9.662  16.277  74.374  1.00 60.24     0.076 C 
BRANCH  35  36
ATOM     36  SD  MET A  49     -11.176  17.009  75.025  1.00 77.15    -0.173 SA
ATOM     37  CE  MET A  49     -12.359  15.714  74.659  1.00 60.34     0.089 C 
ENDBRANCH  35  36
ENDBRANCH  34  35
ENDBRANCH  33  34
END_RES MET A  49
BEGIN_RES GLU A 166
REMARK  3 active torsions:
REMARK  status: ('A' for Active; 'I' for Inactive)
REMARK   14  A    between atoms: CA   and  CB  
REMARK   15  A    between atoms: CB   and  CG  
REMARK   16  A    between atoms: CG   and  CD  
ROOT
ATOM     38  CA  GLU A 166     -14.746   9.219  66.167  1.00 28.52     0.177 C 
ENDROOT
BRANCH  38  39
ATOM     39  CB  GLU A 166     -13.578   9.064  65.189  1.00 29.90     0.045 C 
BRANCH  39  40
ATOM     40  CG  GLU A 166     -13.604   7.812  64.333  1.00 36.08     0.116 C 
BRANCH  40  41
ATOM     41  CD  GLU A 166     -12.486   7.803  63.307  1.00 45.17     0.172 C 
ATOM     42  OE2 GLU A 166     -12.131   8.890  62.804  1.00 40.54    -0.648 OA
ATOM     43  OE1 GLU A 166     -11.955   6.711  63.010  1.00 50.70    -0.648 OA
ENDBRANCH  40  41
ENDBRANCH  39  40
ENDBRANCH  38  39
END_RES GLU A 166
BEGIN_RES HIS A 163
REMARK  2 active torsions:
REMARK  status: ('A' for Active; 'I' for Inactive)
REMARK   17  A    between atoms: CA   and  CB  
REMARK   18  A    between atoms: CB   and  CG  
ROOT
ATOM     44  CA  HIS A 163     -19.055  16.637  64.100  1.00 27.27     0.182 C 
ENDROOT
BRANCH  44  45
ATOM     45  CB  HIS A 163     -18.129  16.377  62.914  1.00 26.00     0.093 C 
BRANCH  45  46
ATOM     46  CG  HIS A 163     -17.105  15.319  63.178  1.00 26.66     0.028 A 
ATOM     47  ND1 HIS A 163     -15.756  15.593  63.252  1.00 26.97    -0.354 N 
ATOM     48  CE1 HIS A 163     -15.094  14.474  63.487  1.00 30.44     0.180 A 
ATOM     49  HD1 HIS A 163     -15.335  16.515  63.142  1.00  0.00     0.166 HD
ATOM     50  NE2 HIS A 163     -15.965  13.484  63.564  1.00 30.00    -0.360 N 
ATOM     51  CD2 HIS A 163     -17.230  13.985  63.373  1.00 29.24     0.114 A 
ATOM     52  HE2 HIS A 163     -15.736  12.505  63.736  1.00  0.00     0.166 HD
ENDBRANCH  45  46
ENDBRANCH  44  45
END_RES HIS A 163
BEGIN_RES HIS A 172
REMARK  2 active torsions:
REMARK  status: ('A' for Active; 'I' for Inactive)
REMARK   19  A    between atoms: CA   and  CB  
REMARK   20  A    between atoms: CB   and  CG  
ROOT
ATOM     53  CA  HIS A 172     -18.444   9.111  64.049  1.00 29.85     0.182 C 
ENDROOT
BRANCH  53  54
ATOM     54  CB  HIS A 172     -18.188  10.085  62.898  1.00 26.76     0.093 C 
BRANCH  54  55
ATOM     55  CG  HIS A 172     -16.884   9.855  62.200  1.00 28.76     0.028 A 
ATOM     56  CD2 HIS A 172     -15.621  10.214  62.530  1.00 29.36     0.114 A 
ATOM     57  NE2 HIS A 172     -14.793   9.740  61.541  1.00 33.77    -0.360 N 
ATOM     58  CE1 HIS A 172     -15.522   9.107  60.638  1.00 32.44     0.180 A 
ATOM     59  HE2 HIS A 172     -13.781   9.857  61.510  1.00  0.00     0.166 HD
ATOM     60  ND1 HIS A 172     -16.788   9.158  61.014  1.00 29.32    -0.354 N 
ATOM     61  HD1 HIS A 172     -17.571   8.748  60.506  1.00  0.00     0.166 HD
ENDBRANCH  54  55
ENDBRANCH  53  54
END_RES HIS A 172
BEGIN_RES THR A  26
REMARK  2 active torsions:
REMARK  status: ('A' for Active; 'I' for Inactive)
REMARK   21  A    between atoms: CA   and  CB  
REMARK   22  A    between atoms: CB   and  OG1 
ROOT
ATOM     62  CA  THR A  26      -8.224  25.031  66.060  1.00 43.98     0.205 C 
ENDROOT
BRANCH  62  63
ATOM     63  CB  THR A  26      -7.184  25.490  65.034  1.00 45.90     0.146 C 
ATOM     64  CG2 THR A  26      -7.853  26.027  63.767  1.00 47.20     0.042 C 
BRANCH  63  65
ATOM     65  OG1 THR A  26      -6.352  26.505  65.607  1.00 50.51    -0.393 OA
ATOM     66  HG1 THR A  26      -5.440  26.317  65.420  1.00  0.00     0.210 HD
ENDBRANCH  63  65
ENDBRANCH  62  63
END_RES THR A  26
ENDMDL
MODEL 4
REMARK VINA RESULT:      -7.2      2.027      3.972
REMARK  14 active torsions:
REMARK  status: ('A' for Active; 'I' for Inactive)
REMARK    1  A    between atoms: C2_2  and  O1_3 
REMARK    2  A    between atoms: O1_3  and  C3_4 
REMARK    3  A    between atoms: C3_4  and  C4_6 
REMARK    4  A    between atoms: C5_7  and  C6_8 
REMARK    5  A    between atoms: C6_8  and  C7_9 
REMARK    6  A    between atoms: C6_8  and  N2_14 
REMARK    7  A    between atoms: C7_9  and  C8_10 
REMARK    8  A    between atoms: C8_10  and  C9_11 
REMARK       I    between atoms: C9_11  and  N1_12 
REMARK       I    between atoms: N2_14  and  C10_15 
REMARK    9  A    between atoms: C10_15  and  C11_17 
REMARK   10  A    between atoms: C11_17  and  C12_18 
REMARK   11  A    between atoms: C11_17  and  N3_25 
REMARK   12  A    between atoms: C12_18  and  C13_19 
REMARK   13  A    between atoms: C23_30  and  N4_31 
REMARK       I    between atoms: N4_31  and  C24_32 
REMARK   14  A    between atoms: C24_32  and  C25_34 
ROOT
HETATM    1  C1  UNL     1      -5.958  14.572  73.235  1.00  0.00     0.034 C 
HETATM    2  C2  UNL     1      -5.765  14.896  71.770  1.00  0.00     0.174 C 
ENDROOT
BRANCH   2   3
HETATM    3  O1  UNL     1      -4.946  16.047  71.635  1.00  0.00    -0.319 OA
BRANCH   3   4
HETATM    4  C3  UNL     1      -5.138  17.005  70.656  1.00  0.00     0.282 C 
HETATM    5  O2  UNL     1      -4.140  17.657  70.275  1.00  0.00    -0.260 OA
BRANCH   4   6
HETATM    6  C4  UNL     1      -6.470  17.225  70.106  1.00  0.00     0.080 C 
HETATM    7  C5  UNL     1      -6.641  17.543  68.856  1.00  0.00     0.004 C 
BRANCH   7   8
HETATM    8  C6  UNL     1      -7.966  17.782  68.233  1.00  0.00     0.108 C 
BRANCH   8   9
HETATM    9  C7  UNL     1      -8.749  18.689  69.164  1.00  0.00     0.038 C 
BRANCH   9  10
HETATM   10  C8  UNL     1      -9.788  19.475  68.409  1.00  0.00     0.105 C 
BRANCH  10  11
HETATM   11  C9  UNL     1      -9.143  20.208  67.303  1.00  0.00     0.215 C 
HETATM   12  N1  UNL     1      -9.713  20.175  66.011  1.00  0.00    -0.370 N 
HETATM   13  H13 UNL     1     -10.350  19.409  65.747  1.00  0.00     0.159 HD
HETATM   14  H14 UNL     1      -9.497  20.913  65.327  1.00  0.00     0.159 HD
HETATM   15  O3  UNL     1      -8.100  20.859  67.497  1.00  0.00    -0.274 OA
ENDBRANCH  10  11
ENDBRANCH   9  10
ENDBRANCH   8   9
BRANCH   8  16
HETATM   16  N2  UNL     1      -8.686  16.567  67.938  1.00  0.00    -0.351 N 
HETATM   17  C10 UNL     1      -9.255  16.289  66.667  1.00  0.00     0.241 C 
HETATM   18  O4  UNL     1      -9.112  17.156  65.777  1.00  0.00    -0.271 OA
HETATM   19  H15 UNL     1      -8.779  15.876  68.708  1.00  0.00     0.163 HD
BRANCH  17  20
HETATM   20  C11 UNL     1      -9.973  14.994  66.501  1.00  0.00     0.188 C 
BRANCH  20  21
HETATM   21  C12 UNL     1     -10.787  14.967  65.258  1.00  0.00     0.074 C 
BRANCH  21  22
HETATM   22  C13 UNL     1     -10.758  13.662  64.602  1.00  0.00    -0.056 A 
HETATM   23  C14 UNL     1     -11.865  13.022  64.105  1.00  0.00     0.007 A 
HETATM   24  C15 UNL     1     -11.783  11.777  63.509  1.00  0.00     0.001 A 
HETATM   25  C16 UNL     1     -10.575  11.126  63.390  1.00  0.00     0.000 A 
HETATM   26  C17 UNL     1      -9.460  11.763  63.886  1.00  0.00     0.001 A 
HETATM   27  C18 UNL     1      -9.533  13.002  64.481  1.00  0.00     0.007 A 
ENDBRANCH  21  22
ENDBRANCH  20  21
BRANCH  20  28
HETATM   28  N3  UNL     1     -10.604  14.542  67.701  1.00  0.00    -0.309 N 
HETATM   29  C19 UNL     1     -11.525  15.317  68.354  1.00  0.00     0.096 A 
HETATM   30  C20 UNL     1     -12.166  14.932  69.496  1.00  0.00     0.026 A 
HETATM   31  C21 UNL     1     -11.899  13.705  70.051  1.00  0.00    -0.028 A 
HETATM   32  C22 UNL     1     -12.557  13.222  71.286  1.00  0.00     0.050 C 
HETATM   33  C23 UNL     1     -10.978  12.895  69.423  1.00  0.00     0.110 A 
HETATM   34  C29 UNL     1     -10.363  13.349  68.266  1.00  0.00     0.275 A 
HETATM   35  O7  UNL     1      -9.521  12.570  67.724  1.00  0.00    -0.265 OA
BRANCH  33  36
HETATM   36  N4  UNL     1     -10.689  11.623  69.980  1.00  0.00    -0.317 N 
HETATM   37  C24 UNL     1     -11.376  10.460  69.557  1.00  0.00     0.277 C 
HETATM   38  O5  UNL     1     -12.259  10.565  68.670  1.00  0.00    -0.266 OA
HETATM   39  H29 UNL     1      -9.961  11.539  70.713  1.00  0.00     0.169 HD
BRANCH  37  40
HETATM   40  C25 UNL     1     -11.061   9.156  70.146  1.00  0.00     0.154 A 
HETATM   41  C26 UNL     1     -11.827   8.475  71.070  1.00  0.00     0.074 A 
HETATM   42  C27 UNL     1     -11.176   7.292  71.362  1.00  0.00     0.077 A 
HETATM   43  C28 UNL     1     -11.585   6.212  72.295  1.00  0.00     0.079 C 
HETATM   44  O6  UNL     1     -10.087   7.298  70.635  1.00  0.00    -0.218 OA
HETATM   45  N5  UNL     1      -9.999   8.373  69.921  1.00  0.00    -0.123 NA
ENDBRANCH  37  40
ENDBRANCH  33  36
ENDBRANCH  20  28
ENDBRANCH  17  20
ENDBRANCH   8  16
ENDBRANCH   7   8
ENDBRANCH   4   6
ENDBRANCH   3   4
ENDBRANCH   2   3
TORSDOF 14
BEGIN_RES HIS A  41
REMARK  2 active torsions:
REMARK  status: ('A' for Active; 'I' for Inactive)
REMARK    1  A    between atoms: CA   and  CB  
REMARK    2  A    between atoms: CB   and  CG  
ROOT
ATOM      1  CA  HIS A  41     -13.820  21.037  73.265  1.00 38.89     0.182 C 
ENDROOT
BRANCH   1   2
ATOM      2  CB  HIS A  41     -13.705  19.545  72.937  1.00 42.38     0.093 C 
BRANCH   2   3
ATOM      3  CG  HIS A  41     -14.087  19.199  71.532  1.00 37.90     0.028 A 
ATOM      4  CD2 HIS A  41     -13.464  19.433  70.353  1.00 37.33     0.114 A 
ATOM      5  NE2 HIS A  41     -14.252  18.894  69.365  1.00 41.88    -0.360 N 
ATOM      6  CE1 HIS A  41     -15.318  18.343  69.919  1.00 41.55     0.180 A 
ATOM      7  HE2 HIS A  41     -14.047  18.916  68.366  1.00  0.00     0.166 HD
ATOM      8  ND1 HIS A  41     -15.242  18.511  71.226  1.00 36.57    -0.354 N 
ATOM      9  HD1 HIS A  41     -15.930  18.182  71.904  1.00  0.00     0.166 HD
ENDBRANCH   2   3
ENDBRANCH   1   2
END_RES HIS A  41
BEGIN_RES CYS A 145
REMARK  1 active torsions:
REMARK  status: ('A' for Active; 'I' for Inactive)
REMARK    3  A    between atoms: CA   and  CB  
ROOT
ATOM     10  CA  CYS A 145     -14.607  19.162  64.101  1.00 29.71     0.186 C 
ENDROOT
BRANCH  10  11
ATOM     11  CB  CYS A 145     -14.100  19.110  65.541  1.00 31.75     0.120 C 
ATOM     12  SG  CYS A 145     -13.561  17.470  66.059  1.00 39.68    -0.095 SA
ENDBRANCH  10  11
END_RES CYS A 145
BEGIN_RES GLN A 189
REMARK  3 active torsions:
REMARK  status: ('A' for Active; 'I' for Inactive)
REMARK    4  A    between atoms: CA   and  CB  
REMARK    5  A    between atoms: CB   and  CG  
REMARK    6  A    between atoms: CG   and  CD  
REMARK       I    between atoms: CD   and  NE2 
ROOT
ATOM     13  CA  GLN A 189     -11.641  10.633  75.105  1.00 38.41     0.177 C 
ENDROOT
BRANCH  13  14
ATOM     14  CB  GLN A 189     -10.259  11.109  74.679  1.00 37.59     0.044 C 
BRANCH  14  15
ATOM     15  CG  GLN A 189      -9.944  10.828  73.219  1.00 45.60     0.105 C 
BRANCH  15  16
ATOM     16  CD  GLN A 189      -8.803   9.846  73.044  1.00 47.27     0.215 C 
ATOM     17  NE2 GLN A 189      -8.060   9.989  71.952  1.00 44.45    -0.370 N 
ATOM     18 2HE2 GLN A 189      -8.235  10.716  71.258  1.00  0.00     0.159 HD
ATOM     19 1HE2 GLN A 189      -7.292   9.328  71.834  1.00  0.00     0.159 HD
ATOM     20  OE1 GLN A 189      -8.592   8.968  73.882  1.00 41.09    -0.274 OA
ENDBRANCH  15  16
ENDBRANCH  14  15
ENDBRANCH  13  14
END_RES GLN A 189
BEGIN_RES ASN A 142
REMARK  2 active torsions:
REMARK  status: ('A' for Active; 'I' for Inactive)
REMARK    7  A    between atoms: CA   and  CB  
REMARK    8  A    between atoms: CB   and  CG  
REMARK       I    between atoms: CG   and  ND2 
ROOT
ATOM     21  CA  ASN A 142      -7.978  15.712  62.559  1.00 43.18     0.185 C 
ENDROOT
BRANCH  21  22
ATOM     22  CB  ASN A 142      -6.512  15.609  62.983  1.00 38.76     0.137 C 
BRANCH  22  23
ATOM     23  CG  ASN A 142      -6.341  15.546  64.489  1.00 50.71     0.217 C 
ATOM     24  ND2 ASN A 142      -6.077  16.694  65.102  1.00 55.08    -0.370 N 
ATOM     25 2HD2 ASN A 142      -5.991  17.578  64.600  1.00  0.00     0.159 HD
ATOM     26 1HD2 ASN A 142      -5.962  16.652  66.115  1.00  0.00     0.159 HD
ATOM     27  OD1 ASN A 142      -6.445  14.480  65.094  1.00 51.97    -0.274 OA
ENDBRANCH  22  23
ENDBRANCH  21  22
END_RES ASN A 142
BEGIN_RES LEU A  27
REMARK  2 active torsions:
REMARK  status: ('A' for Active; 'I' for Inactive)
REMARK    9  A    between atoms: CA   and  CB  
REMARK   10  A    between atoms: CB   and  CG  
ROOT
ATOM     28  CA  LEU A  27     -11.471  23.771  64.549  1.00 37.04     0.177 C 
ENDROOT
BRANCH  28  29
ATOM     29  CB  LEU A  27     -12.225  22.902  65.570  1.00 37.70     0.038 C 
BRANCH  29  30
ATOM     30  CG  LEU A  27     -12.477  23.380  67.000  1.00 36.32    -0.020 C 
ATOM     31  CD1 LEU A  27     -13.824  24.074  67.128  1.00 32.79     0.009 C 
ATOM     32  CD2 LEU A  27     -12.400  22.194  67.949  1.00 31.17     0.009 C 
ENDBRANCH  29  30
ENDBRANCH  28  29
END_RES LEU A  27
BEGIN_RES MET A  49
REMARK  3 active torsions:
REMARK  status: ('A' for Active; 'I' for Inactive)
REMARK   11  A    between atoms: CA   and  CB  
REMARK   12  A    between atoms: CB   and  CG  
REMARK   13  A    between atoms: CG   and  SD  
ROOT
ATOM     33  CA  MET A  49      -9.418  15.600  76.823  1.00 61.58     0.177 C 
ENDROOT
BRANCH  33  34
ATOM     34  CB  MET A  49      -8.930  15.410  75.386  1.00 62.15     0.045 C 
BRANCH  34  35
ATOM     35  CG  MET A  49      -9.514  16.416  74.407  1.00 60.24     0.076 C 
BRANCH  35  36
ATOM     36  SD  MET A  49     -11.201  16.909  74.810  1.00 77.15    -0.173 SA
ATOM     37  CE  MET A  49     -12.112  15.469  74.256  1.00 60.34     0.089 C 
ENDBRANCH  35  36
ENDBRANCH  34  35
ENDBRANCH  33  34
END_RES MET A  49
BEGIN_RES GLU A 166
REMARK  3 active torsions:
REMARK  status: ('A' for Active; 'I' for Inactive)
REMARK   14  A    between atoms: CA   and  CB  
REMARK   15  A    between atoms: CB   and  CG  
REMARK   16  A    between atoms: CG   and  CD  
ROOT
ATOM     38  CA  GLU A 166     -14.746   9.219  66.167  1.00 28.52     0.177 C 
ENDROOT
BRANCH  38  39
ATOM     39  CB  GLU A 166     -13.578   9.064  65.189  1.00 29.90     0.045 C 
BRANCH  39  40
ATOM     40  CG  GLU A 166     -13.662   7.873  64.254  1.00 36.08     0.116 C 
BRANCH  40  41
ATOM     41  CD  GLU A 166     -12.426   7.746  63.384  1.00 45.17     0.172 C 
ATOM     42  OE2 GLU A 166     -11.306   7.743  63.938  1.00 40.54    -0.648 OA
ATOM     43  OE1 GLU A 166     -12.572   7.637  62.147  1.00 50.70    -0.648 OA
ENDBRANCH  40  41
ENDBRANCH  39  40
ENDBRANCH  38  39
END_RES GLU A 166
BEGIN_RES HIS A 163
REMARK  2 active torsions:
REMARK  status: ('A' for Active; 'I' for Inactive)
REMARK   17  A    between atoms: CA   and  CB  
REMARK   18  A    between atoms: CB   and  CG  
ROOT
ATOM     44  CA  HIS A 163     -19.055  16.637  64.100  1.00 27.27     0.182 C 
ENDROOT
BRANCH  44  45
ATOM     45  CB  HIS A 163     -18.129  16.377  62.914  1.00 26.00     0.093 C 
BRANCH  45  46
ATOM     46  CG  HIS A 163     -17.071  15.357  63.196  1.00 26.66     0.028 A 
ATOM     47  ND1 HIS A 163     -15.736  15.682  63.301  1.00 26.97    -0.354 N 
ATOM     48  CE1 HIS A 163     -15.037  14.588  63.546  1.00 30.44     0.180 A 
ATOM     49  HD1 HIS A 163     -15.348  16.620  63.206  1.00  0.00     0.166 HD
ATOM     50  NE2 HIS A 163     -15.871  13.565  63.598  1.00 30.00    -0.360 N 
ATOM     51  CD2 HIS A 163     -17.149  14.018  63.381  1.00 29.24     0.114 A 
ATOM     52  HE2 HIS A 163     -15.608  12.594  63.771  1.00  0.00     0.166 HD
ENDBRANCH  45  46
ENDBRANCH  44  45
END_RES HIS A 163
BEGIN_RES HIS A 172
REMARK  2 active torsions:
REMARK  status: ('A' for Active; 'I' for Inactive)
REMARK   19  A    between atoms: CA   and  CB  
REMARK   20  A    between atoms: CB   and  CG  
ROOT
ATOM     53  CA  HIS A 172     -18.444   9.111  64.049  1.00 29.85     0.182 C 
ENDROOT
BRANCH  53  54
ATOM     54  CB  HIS A 172     -18.188  10.085  62.898  1.00 26.76     0.093 C 
BRANCH  54  55
ATOM     55  CG  HIS A 172     -16.846   9.915  62.259  1.00 28.76     0.028 A 
ATOM     56  CD2 HIS A 172     -15.620  10.355  62.629  1.00 29.36     0.114 A 
ATOM     57  NE2 HIS A 172     -14.726   9.905  61.688  1.00 33.77    -0.360 N 
ATOM     58  CE1 HIS A 172     -15.379   9.209  60.773  1.00 32.44     0.180 A 
ATOM     59  HE2 HIS A 172     -13.721  10.081  61.694  1.00  0.00     0.166 HD
ATOM     60  ND1 HIS A 172     -16.660   9.196  61.097  1.00 29.32    -0.354 N 
ATOM     61  HD1 HIS A 172     -17.397   8.728  60.569  1.00  0.00     0.166 HD
ENDBRANCH  54  55
ENDBRANCH  53  54
END_RES HIS A 172
BEGIN_RES THR A  26
REMARK  2 active torsions:
REMARK  status: ('A' for Active; 'I' for Inactive)
REMARK   21  A    between atoms: CA   and  CB  
REMARK   22  A    between atoms: CB   and  OG1 
ROOT
ATOM     62  CA  THR A  26      -8.224  25.031  66.060  1.00 43.98     0.205 C 
ENDROOT
BRANCH  62  63
ATOM     63  CB  THR A  26      -7.184  25.490  65.034  1.00 45.90     0.146 C 
ATOM     64  CG2 THR A  26      -7.850  25.951  63.736  1.00 47.20     0.042 C 
BRANCH  63  65
ATOM     65  OG1 THR A  26      -6.402  26.558  65.580  1.00 50.51    -0.393 OA
ATOM     66  HG1 THR A  26      -5.770  26.211  66.199  1.00  0.00     0.210 HD
ENDBRANCH  63  65
ENDBRANCH  62  63
END_RES THR A  26
ENDMDL
MODEL 5
REMARK VINA RESULT:      -7.2      1.913      3.104
REMARK  14 active torsions:
REMARK  status: ('A' for Active; 'I' for Inactive)
REMARK    1  A    between atoms: C2_2  and  O1_3 
REMARK    2  A    between atoms: O1_3  and  C3_4 
REMARK    3  A    between atoms: C3_4  and  C4_6 
REMARK    4  A    between atoms: C5_7  and  C6_8 
REMARK    5  A    between atoms: C6_8  and  C7_9 
REMARK    6  A    between atoms: C6_8  and  N2_14 
REMARK    7  A    between atoms: C7_9  and  C8_10 
REMARK    8  A    between atoms: C8_10  and  C9_11 
REMARK       I    between atoms: C9_11  and  N1_12 
REMARK       I    between atoms: N2_14  and  C10_15 
REMARK    9  A    between atoms: C10_15  and  C11_17 
REMARK   10  A    between atoms: C11_17  and  C12_18 
REMARK   11  A    between atoms: C11_17  and  N3_25 
REMARK   12  A    between atoms: C12_18  and  C13_19 
REMARK   13  A    between atoms: C23_30  and  N4_31 
REMARK       I    between atoms: N4_31  and  C24_32 
REMARK   14  A    between atoms: C24_32  and  C25_34 
ROOT
HETATM    1  C1  UNL     1     -10.319  19.741  66.174  1.00  0.00     0.034 C 
HETATM    2  C2  UNL     1      -9.967  20.399  67.491  1.00  0.00     0.174 C 
ENDROOT
BRANCH   2   3
HETATM    3  O1  UNL     1     -10.619  19.723  68.555  1.00  0.00    -0.319 OA
BRANCH   3   4
HETATM    4  C3  UNL     1     -10.000  18.763  69.336  1.00  0.00     0.282 C 
HETATM    5  O2  UNL     1      -9.205  19.155  70.220  1.00  0.00    -0.260 OA
BRANCH   4   6
HETATM    6  C4  UNL     1     -10.283  17.351  69.112  1.00  0.00     0.080 C 
HETATM    7  C5  UNL     1     -11.450  16.843  69.384  1.00  0.00     0.004 C 
BRANCH   7   8
HETATM    8  C6  UNL     1     -11.804  15.417  69.182  1.00  0.00     0.108 C 
BRANCH   8   9
HETATM    9  C7  UNL     1     -12.500  14.938  70.443  1.00  0.00     0.038 C 
BRANCH   9  10
HETATM   10  C8  UNL     1     -12.370  15.949  71.551  1.00  0.00     0.105 C 
BRANCH  10  11
HETATM   11  C9  UNL     1     -13.498  15.798  72.490  1.00  0.00     0.215 C 
HETATM   12  N1  UNL     1     -13.299  16.026  73.870  1.00  0.00    -0.370 N 
HETATM   13  H13 UNL     1     -12.352  15.963  74.273  1.00  0.00     0.159 HD
HETATM   14  H14 UNL     1     -14.095  16.254  74.480  1.00  0.00     0.159 HD
HETATM   15  O3  UNL     1     -14.626  15.473  72.078  1.00  0.00    -0.274 OA
ENDBRANCH  10  11
ENDBRANCH   9  10
ENDBRANCH   8   9
BRANCH   8  16
HETATM   16  N2  UNL     1     -10.671  14.589  68.848  1.00  0.00    -0.351 N 
HETATM   17  C10 UNL     1     -10.469  14.032  67.557  1.00  0.00     0.241 C 
HETATM   18  O4  UNL     1     -11.329  14.286  66.686  1.00  0.00    -0.271 OA
HETATM   19  H15 UNL     1      -9.983  14.406  69.603  1.00  0.00     0.163 HD
BRANCH  17  20
HETATM   20  C11 UNL     1      -9.254  13.194  67.350  1.00  0.00     0.188 C 
BRANCH  20  21
HETATM   21  C12 UNL     1      -8.277  13.849  66.443  1.00  0.00     0.074 C 
BRANCH  21  22
HETATM   22  C13 UNL     1      -7.727  15.077  67.010  1.00  0.00    -0.056 A 
HETATM   23  C14 UNL     1      -7.072  15.146  68.215  1.00  0.00     0.007 A 
HETATM   24  C15 UNL     1      -6.587  16.341  68.715  1.00  0.00     0.001 A 
HETATM   25  C16 UNL     1      -6.744  17.518  68.017  1.00  0.00     0.000 A 
HETATM   26  C17 UNL     1      -7.400  17.456  66.809  1.00  0.00     0.001 A 
HETATM   27  C18 UNL     1      -7.886  16.271  66.303  1.00  0.00     0.007 A 
ENDBRANCH  21  22
ENDBRANCH  20  21
BRANCH  20  28
HETATM   28  N3  UNL     1      -9.555  11.820  67.098  1.00  0.00    -0.309 N 
HETATM   29  C19 UNL     1      -9.237  11.231  65.902  1.00  0.00     0.096 A 
HETATM   30  C20 UNL     1      -9.491   9.922  65.612  1.00  0.00     0.026 A 
HETATM   31  C21 UNL     1     -10.097   9.117  66.545  1.00  0.00    -0.028 A 
HETATM   32  C22 UNL     1     -10.400   7.690  66.299  1.00  0.00     0.050 C 
HETATM   33  C23 UNL     1     -10.431   9.673  67.761  1.00  0.00     0.110 A 
HETATM   34  C29 UNL     1     -10.146  11.011  67.991  1.00  0.00     0.275 A 
HETATM   35  O7  UNL     1     -10.475  11.478  69.123  1.00  0.00    -0.265 OA
BRANCH  33  36
HETATM   36  N4  UNL     1     -11.058   8.858  68.739  1.00  0.00    -0.317 N 
HETATM   37  C24 UNL     1     -10.305   8.206  69.746  1.00  0.00     0.277 C 
HETATM   38  O5  UNL     1      -9.059   8.357  69.766  1.00  0.00    -0.266 OA
HETATM   39  H29 UNL     1     -12.086   8.734  68.720  1.00  0.00     0.169 HD
BRANCH  37  40
HETATM   40  C25 UNL     1     -10.972   7.369  70.747  1.00  0.00     0.154 A 
HETATM   41  C26 UNL     1     -10.419   6.289  71.403  1.00  0.00     0.074 A 
HETATM   42  C27 UNL     1     -11.378   5.783  72.259  1.00  0.00     0.077 A 
HETATM   43  C28 UNL     1     -11.281   4.627  73.184  1.00  0.00     0.079 C 
HETATM   44  O6  UNL     1     -12.433   6.542  72.097  1.00  0.00    -0.218 OA
HETATM   45  N5  UNL     1     -12.220   7.470  71.221  1.00  0.00    -0.123 NA
ENDBRANCH  37  40
ENDBRANCH  33  36
ENDBRANCH  20  28
ENDBRANCH  17  20
ENDBRANCH   8  16
ENDBRANCH   7   8
ENDBRANCH   4   6
ENDBRANCH   3   4
ENDBRANCH   2   3
TORSDOF 14
BEGIN_RES HIS A  41
REMARK  2 active torsions:
REMARK  status: ('A' for Active; 'I' for Inactive)
REMARK    1  A    between atoms: CA   and  CB  
REMARK    2  A    between atoms: CB   and  CG  
ROOT
ATOM      1  CA  HIS A  41     -13.820  21.037  73.265  1.00 38.89     0.182 C 
ENDROOT
BRANCH   1   2
ATOM      2  CB  HIS A  41     -13.705  19.545  72.937  1.00 42.38     0.093 C 
BRANCH   2   3
ATOM      3  CG  HIS A  41     -14.146  19.190  71.552  1.00 37.90     0.028 A 
ATOM      4  CD2 HIS A  41     -13.601  19.466  70.343  1.00 37.33     0.114 A 
ATOM      5  NE2 HIS A  41     -14.413  18.894  69.394  1.00 41.88    -0.360 N 
ATOM      6  CE1 HIS A  41     -15.417  18.284  69.999  1.00 41.55     0.180 A 
ATOM      7  HE2 HIS A  41     -14.264  18.934  68.385  1.00  0.00     0.166 HD
ATOM      8  ND1 HIS A  41     -15.278  18.445  71.302  1.00 36.57    -0.354 N 
ATOM      9  HD1 HIS A  41     -15.910  18.076  72.012  1.00  0.00     0.166 HD
ENDBRANCH   2   3
ENDBRANCH   1   2
END_RES HIS A  41
BEGIN_RES CYS A 145
REMARK  1 active torsions:
REMARK  status: ('A' for Active; 'I' for Inactive)
REMARK    3  A    between atoms: CA   and  CB  
ROOT
ATOM     10  CA  CYS A 145     -14.607  19.162  64.101  1.00 29.71     0.186 C 
ENDROOT
BRANCH  10  11
ATOM     11  CB  CYS A 145     -14.100  19.110  65.541  1.00 31.75     0.120 C 
ATOM     12  SG  CYS A 145     -13.512  17.482  66.042  1.00 39.68    -0.095 SA
ENDBRANCH  10  11
END_RES CYS A 145
BEGIN_RES GLN A 189
REMARK  3 active torsions:
REMARK  status: ('A' for Active; 'I' for Inactive)
REMARK    4  A    between atoms: CA   and  CB  
REMARK    5  A    between atoms: CB   and  CG  
REMARK    6  A    between atoms: CG   and  CD  
REMARK       I    between atoms: CD   and  NE2 
ROOT
ATOM     13  CA  GLN A 189     -11.641  10.633  75.105  1.00 38.41     0.177 C 
ENDROOT
BRANCH  13  14
ATOM     14  CB  GLN A 189     -10.259  11.109  74.679  1.00 37.59     0.044 C 
BRANCH  14  15
ATOM     15  CG  GLN A 189     -10.093  11.219  73.172  1.00 45.60     0.105 C 
BRANCH  15  16
ATOM     16  CD  GLN A 189     -11.377  11.611  72.468  1.00 47.27     0.215 C 
ATOM     17  NE2 GLN A 189     -11.856  10.744  71.583  1.00 44.45    -0.370 N 
ATOM     18 2HE2 GLN A 189     -11.396   9.857  71.377  1.00  0.00     0.159 HD
ATOM     19 1HE2 GLN A 189     -12.720  11.008  71.109  1.00  0.00     0.159 HD
ATOM     20  OE1 GLN A 189     -11.931  12.682  72.718  1.00 41.09    -0.274 OA
ENDBRANCH  15  16
ENDBRANCH  14  15
ENDBRANCH  13  14
END_RES GLN A 189
BEGIN_RES ASN A 142
REMARK  2 active torsions:
REMARK  status: ('A' for Active; 'I' for Inactive)
REMARK    7  A    between atoms: CA   and  CB  
REMARK    8  A    between atoms: CB   and  CG  
REMARK       I    between atoms: CG   and  ND2 
ROOT
ATOM     21  CA  ASN A 142      -7.978  15.712  62.559  1.00 43.18     0.185 C 
ENDROOT
BRANCH  21  22
ATOM     22  CB  ASN A 142      -6.512  15.609  62.983  1.00 38.76     0.137 C 
BRANCH  22  23
ATOM     23  CG  ASN A 142      -6.192  14.295  63.669  1.00 50.71     0.217 C 
ATOM     24  ND2 ASN A 142      -5.208  14.318  64.562  1.00 55.08    -0.370 N 
ATOM     25 2HD2 ASN A 142      -4.687  15.167  64.783  1.00  0.00     0.159 HD
ATOM     26 1HD2 ASN A 142      -4.992  13.434  65.023  1.00  0.00     0.159 HD
ATOM     27  OD1 ASN A 142      -6.820  13.271  63.403  1.00 51.97    -0.274 OA
ENDBRANCH  22  23
ENDBRANCH  21  22
END_RES ASN A 142
BEGIN_RES LEU A  27
REMARK  2 active torsions:
REMARK  status: ('A' for Active; 'I' for Inactive)
REMARK    9  A    between atoms: CA   and  CB  
REMARK   10  A    between atoms: CB   and  CG  
ROOT
ATOM     28  CA  LEU A  27     -11.471  23.771  64.549  1.00 37.04     0.177 C 
ENDROOT
BRANCH  28  29
ATOM     29  CB  LEU A  27     -12.225  22.902  65.570  1.00 37.70     0.038 C 
BRANCH  29  30
ATOM     30  CG  LEU A  27     -12.599  23.432  66.954  1.00 36.32    -0.020 C 
ATOM     31  CD1 LEU A  27     -13.695  24.482  66.874  1.00 32.79     0.009 C 
ATOM     32  CD2 LEU A  27     -13.039  22.273  67.835  1.00 31.17     0.009 C 
ENDBRANCH  29  30
ENDBRANCH  28  29
END_RES LEU A  27
BEGIN_RES MET A  49
REMARK  3 active torsions:
REMARK  status: ('A' for Active; 'I' for Inactive)
REMARK   11  A    between atoms: CA   and  CB  
REMARK   12  A    between atoms: CB   and  CG  
REMARK   13  A    between atoms: CG   and  SD  
ROOT
ATOM     33  CA  MET A  49      -9.418  15.600  76.823  1.00 61.58     0.177 C 
ENDROOT
BRANCH  33  34
ATOM     34  CB  MET A  49      -8.930  15.410  75.386  1.00 62.15     0.045 C 
BRANCH  34  35
ATOM     35  CG  MET A  49      -9.837  16.047  74.345  1.00 60.24     0.076 C 
BRANCH  35  36
ATOM     36  SD  MET A  49      -9.036  17.366  73.412  1.00 77.15    -0.173 SA
ATOM     37  CE  MET A  49      -8.161  16.414  72.171  1.00 60.34     0.089 C 
ENDBRANCH  35  36
ENDBRANCH  34  35
ENDBRANCH  33  34
END_RES MET A  49
BEGIN_RES GLU A 166
REMARK  3 active torsions:
REMARK  status: ('A' for Active; 'I' for Inactive)
REMARK   14  A    between atoms: CA   and  CB  
REMARK   15  A    between atoms: CB   and  CG  
REMARK   16  A    between atoms: CG   and  CD  
ROOT
ATOM     38  CA  GLU A 166     -14.746   9.219  66.167  1.00 28.52     0.177 C 
ENDROOT
BRANCH  38  39
ATOM     39  CB  GLU A 166     -13.578   9.064  65.189  1.00 29.90     0.045 C 
BRANCH  39  40
ATOM     40  CG  GLU A 166     -13.623   7.831  64.307  1.00 36.08     0.116 C 
BRANCH  40  41
ATOM     41  CD  GLU A 166     -12.465   7.790  63.328  1.00 45.17     0.172 C 
ATOM     42  OE2 GLU A 166     -11.909   6.693  63.109  1.00 40.54    -0.648 OA
ATOM     43  OE1 GLU A 166     -12.115   8.852  62.769  1.00 50.70    -0.648 OA
ENDBRANCH  40  41
ENDBRANCH  39  40
ENDBRANCH  38  39
END_RES GLU A 166
BEGIN_RES HIS A 163
REMARK  2 active torsions:
REMARK  status: ('A' for Active; 'I' for Inactive)
REMARK   17  A    between atoms: CA   and  CB  
REMARK   18  A    between atoms: CB   and  CG  
ROOT
ATOM     44  CA  HIS A 163     -19.055  16.637  64.100  1.00 27.27     0.182 C 
ENDROOT
BRANCH  44  45
ATOM     45  CB  HIS A 163     -18.129  16.377  62.914  1.00 26.00     0.093 C 
BRANCH  45  46
ATOM     46  CG  HIS A 163     -17.095  15.330  63.183  1.00 26.66     0.028 A 
ATOM     47  ND1 HIS A 163     -15.752  15.621  63.281  1.00 26.97    -0.354 N 
ATOM     48  CE1 HIS A 163     -15.078  14.509  63.515  1.00 30.44     0.180 A 
ATOM     49  HD1 HIS A 163     -15.341  16.550  63.187  1.00  0.00     0.166 HD
ATOM     50  NE2 HIS A 163     -15.936  13.507  63.569  1.00 30.00    -0.360 N 
ATOM     51  CD2 HIS A 163     -17.205  13.993  63.363  1.00 29.24     0.114 A 
ATOM     52  HE2 HIS A 163     -15.696  12.529  63.735  1.00  0.00     0.166 HD
ENDBRANCH  45  46
ENDBRANCH  44  45
END_RES HIS A 163
BEGIN_RES HIS A 172
REMARK  2 active torsions:
REMARK  status: ('A' for Active; 'I' for Inactive)
REMARK   19  A    between atoms: CA   and  CB  
REMARK   20  A    between atoms: CB   and  CG  
ROOT
ATOM     53  CA  HIS A 172     -18.444   9.111  64.049  1.00 29.85     0.182 C 
ENDROOT
BRANCH  53  54
ATOM     54  CB  HIS A 172     -18.188  10.085  62.898  1.00 26.76     0.093 C 
BRANCH  54  55
ATOM     55  CG  HIS A 172     -16.867   9.880  62.225  1.00 28.76     0.028 A 
ATOM     56  CD2 HIS A 172     -15.621  10.282  62.568  1.00 29.36     0.114 A 
ATOM     57  NE2 HIS A 172     -14.763   9.813  61.602  1.00 33.77    -0.360 N 
ATOM     58  CE1 HIS A 172     -15.458   9.143  60.700  1.00 32.44     0.180 A 
ATOM     59  HE2 HIS A 172     -13.754   9.960  61.584  1.00  0.00     0.166 HD
ATOM     60  ND1 HIS A 172     -16.731   9.164  61.054  1.00 29.32    -0.354 N 
ATOM     61  HD1 HIS A 172     -17.494   8.721  60.542  1.00  0.00     0.166 HD
ENDBRANCH  54  55
ENDBRANCH  53  54
END_RES HIS A 172
BEGIN_RES THR A  26
REMARK  2 active torsions:
REMARK  status: ('A' for Active; 'I' for Inactive)
REMARK   21  A    between atoms: CA   and  CB  
REMARK   22  A    between atoms: CB   and  OG1 
ROOT
ATOM     62  CA  THR A  26      -8.224  25.031  66.060  1.00 43.98     0.205 C 
ENDROOT
BRANCH  62  63
ATOM     63  CB  THR A  26      -7.184  25.490  65.034  1.00 45.90     0.146 C 
ATOM     64  CG2 THR A  26      -7.852  25.986  63.750  1.00 47.20     0.042 C 
BRANCH  63  65
ATOM     65  OG1 THR A  26      -6.379  26.533  65.593  1.00 50.51    -0.393 OA
ATOM     66  HG1 THR A  26      -5.477  26.242  65.663  1.00  0.00     0.210 HD
ENDBRANCH  63  65
ENDBRANCH  62  63
END_RES THR A  26
ENDMDL
MODEL 6
REMARK VINA RESULT:      -7.2      2.045      6.538
REMARK  14 active torsions:
REMARK  status: ('A' for Active; 'I' for Inactive)
REMARK    1  A    between atoms: C2_2  and  O1_3 
REMARK    2  A    between atoms: O1_3  and  C3_4 
REMARK    3  A    between atoms: C3_4  and  C4_6 
REMARK    4  A    between atoms: C5_7  and  C6_8 
REMARK    5  A    between atoms: C6_8  and  C7_9 
REMARK    6  A    between atoms: C6_8  and  N2_14 
REMARK    7  A    between atoms: C7_9  and  C8_10 
REMARK    8  A    between atoms: C8_10  and  C9_11 
REMARK       I    between atoms: C9_11  and  N1_12 
REMARK       I    between atoms: N2_14  and  C10_15 
REMARK    9  A    between atoms: C10_15  and  C11_17 
REMARK   10  A    between atoms: C11_17  and  C12_18 
REMARK   11  A    between atoms: C11_17  and  N3_25 
REMARK   12  A    between atoms: C12_18  and  C13_19 
REMARK   13  A    between atoms: C23_30  and  N4_31 
REMARK       I    between atoms: N4_31  and  C24_32 
REMARK   14  A    between atoms: C24_32  and  C25_34 
ROOT
HETATM    1  C1  UNL     1     -11.604   6.618  70.229  1.00  0.00     0.034 C 
HETATM    2  C2  UNL     1     -12.257   6.678  71.593  1.00  0.00     0.174 C 
ENDROOT
BRANCH   2   3
HETATM    3  O1  UNL     1     -13.615   7.065  71.460  1.00  0.00    -0.319 OA
BRANCH   3   4
HETATM    4  C3  UNL     1     -14.134   8.218  72.023  1.00  0.00     0.282 C 
HETATM    5  O2  UNL     1     -15.334   8.203  72.380  1.00  0.00    -0.260 OA
BRANCH   4   6
HETATM    6  C4  UNL     1     -13.288   9.394  72.181  1.00  0.00     0.080 C 
HETATM    7  C5  UNL     1     -13.328  10.375  71.326  1.00  0.00     0.004 C 
BRANCH   7   8
HETATM    8  C6  UNL     1     -12.495  11.599  71.426  1.00  0.00     0.108 C 
BRANCH   8   9
HETATM    9  C7  UNL     1     -13.369  12.697  72.003  1.00  0.00     0.038 C 
BRANCH   9  10
HETATM   10  C8  UNL     1     -12.603  13.986  72.137  1.00  0.00     0.105 C 
BRANCH  10  11
HETATM   11  C9  UNL     1     -13.287  15.048  71.376  1.00  0.00     0.215 C 
HETATM   12  N1  UNL     1     -12.764  15.470  70.133  1.00  0.00    -0.370 N 
HETATM   13  H13 UNL     1     -11.772  15.308  69.909  1.00  0.00     0.159 HD
HETATM   14  H14 UNL     1     -13.370  15.940  69.446  1.00  0.00     0.159 HD
HETATM   15  O3  UNL     1     -14.324  15.576  71.817  1.00  0.00    -0.274 OA
ENDBRANCH  10  11
ENDBRANCH   9  10
ENDBRANCH   8   9
BRANCH   8  16
HETATM   16  N2  UNL     1     -11.901  11.989  70.171  1.00  0.00    -0.351 N 
HETATM   17  C10 UNL     1     -10.983  11.174  69.458  1.00  0.00     0.241 C 
HETATM   18  O4  UNL     1     -10.692  10.068  69.963  1.00  0.00    -0.271 OA
HETATM   19  H15 UNL     1     -12.173  12.916  69.791  1.00  0.00     0.163 HD
BRANCH  17  20
HETATM   20  C11 UNL     1     -10.445  11.702  68.173  1.00  0.00     0.188 C 
BRANCH  20  21
HETATM   21  C12 UNL     1     -10.676  10.761  67.046  1.00  0.00     0.074 C 
BRANCH  21  22
HETATM   22  C13 UNL     1     -11.087  11.446  65.824  1.00  0.00    -0.056 A 
HETATM   23  C14 UNL     1     -11.932  12.527  65.791  1.00  0.00     0.007 A 
HETATM   24  C15 UNL     1     -12.304  13.128  64.603  1.00  0.00     0.001 A 
HETATM   25  C16 UNL     1     -11.837  12.659  63.395  1.00  0.00     0.000 A 
HETATM   26  C17 UNL     1     -10.989  11.575  63.420  1.00  0.00     0.001 A 
HETATM   27  C18 UNL     1     -10.613  10.972  64.599  1.00  0.00     0.007 A 
ENDBRANCH  21  22
ENDBRANCH  20  21
BRANCH  20  28
HETATM   28  N3  UNL     1      -9.134  12.257  68.298  1.00  0.00    -0.309 N 
HETATM   29  C19 UNL     1      -8.040  11.621  67.772  1.00  0.00     0.096 A 
HETATM   30  C20 UNL     1      -6.769  12.111  67.852  1.00  0.00     0.026 A 
HETATM   31  C21 UNL     1      -6.532  13.305  68.486  1.00  0.00    -0.028 A 
HETATM   32  C22 UNL     1      -5.181  13.895  68.609  1.00  0.00     0.050 C 
HETATM   33  C23 UNL     1      -7.607  13.976  69.027  1.00  0.00     0.110 A 
HETATM   34  C29 UNL     1      -8.873  13.422  68.911  1.00  0.00     0.275 A 
HETATM   35  O7  UNL     1      -9.831  14.075  69.427  1.00  0.00    -0.265 OA
BRANCH  33  36
HETATM   36  N4  UNL     1      -7.384  15.212  69.686  1.00  0.00    -0.317 N 
HETATM   37  C24 UNL     1      -7.457  16.443  68.988  1.00  0.00     0.277 C 
HETATM   38  O5  UNL     1      -7.726  16.430  67.762  1.00  0.00    -0.266 OA
HETATM   39  H29 UNL     1      -7.161  15.221  70.698  1.00  0.00     0.169 HD
BRANCH  37  40
HETATM   40  C25 UNL     1      -7.224  17.708  69.689  1.00  0.00     0.154 A 
HETATM   41  C26 UNL     1      -6.059  18.080  70.329  1.00  0.00     0.074 A 
HETATM   42  C27 UNL     1      -6.256  19.341  70.856  1.00  0.00     0.077 A 
HETATM   43  C28 UNL     1      -5.312  20.181  71.634  1.00  0.00     0.079 C 
HETATM   44  O6  UNL     1      -7.480  19.675  70.530  1.00  0.00    -0.218 OA
HETATM   45  N5  UNL     1      -8.061  18.739  69.852  1.00  0.00    -0.123 NA
ENDBRANCH  37  40
ENDBRANCH  33  36
ENDBRANCH  20  28
ENDBRANCH  17  20
ENDBRANCH   8  16
ENDBRANCH   7   8
ENDBRANCH   4   6
ENDBRANCH   3   4
ENDBRANCH   2   3
TORSDOF 14
BEGIN_RES HIS A  41
REMARK  2 active torsions:
REMARK  status: ('A' for Active; 'I' for Inactive)
REMARK    1  A    between atoms: CA   and  CB  
REMARK    2  A    between atoms: CB   and  CG  
ROOT
ATOM      1  CA  HIS A  41     -13.820  21.037  73.265  1.00 38.89     0.182 C 
ENDROOT
BRANCH   1   2
ATOM      2  CB  HIS A  41     -13.705  19.545  72.937  1.00 42.38     0.093 C 
BRANCH   2   3
ATOM      3  CG  HIS A  41     -14.084  19.200  71.531  1.00 37.90     0.028 A 
ATOM      4  CD2 HIS A  41     -13.477  19.467  70.351  1.00 37.33     0.114 A 
ATOM      5  NE2 HIS A  41     -14.251  18.910  69.362  1.00 41.88    -0.360 N 
ATOM      6  CE1 HIS A  41     -15.293  18.317  69.917  1.00 41.55     0.180 A 
ATOM      7  HE2 HIS A  41     -14.054  18.949  68.362  1.00  0.00     0.166 HD
ATOM      8  ND1 HIS A  41     -15.215  18.474  71.225  1.00 36.57    -0.354 N 
ATOM      9  HD1 HIS A  41     -15.887  18.114  71.904  1.00  0.00     0.166 HD
ENDBRANCH   2   3
ENDBRANCH   1   2
END_RES HIS A  41
BEGIN_RES CYS A 145
REMARK  1 active torsions:
REMARK  status: ('A' for Active; 'I' for Inactive)
REMARK    3  A    between atoms: CA   and  CB  
ROOT
ATOM     10  CA  CYS A 145     -14.607  19.162  64.101  1.00 29.71     0.186 C 
ENDROOT
BRANCH  10  11
ATOM     11  CB  CYS A 145     -14.100  19.110  65.541  1.00 31.75     0.120 C 
ATOM     12  SG  CYS A 145     -13.496  17.486  66.037  1.00 39.68    -0.095 SA
ENDBRANCH  10  11
END_RES CYS A 145
BEGIN_RES GLN A 189
REMARK  3 active torsions:
REMARK  status: ('A' for Active; 'I' for Inactive)
REMARK    4  A    between atoms: CA   and  CB  
REMARK    5  A    between atoms: CB   and  CG  
REMARK    6  A    between atoms: CG   and  CD  
REMARK       I    between atoms: CD   and  NE2 
ROOT
ATOM     13  CA  GLN A 189     -11.641  10.633  75.105  1.00 38.41     0.177 C 
ENDROOT
BRANCH  13  14
ATOM     14  CB  GLN A 189     -10.259  11.109  74.679  1.00 37.59     0.044 C 
BRANCH  14  15
ATOM     15  CG  GLN A 189      -9.811  10.549  73.339  1.00 45.60     0.105 C 
BRANCH  15  16
ATOM     16  CD  GLN A 189      -8.969  11.529  72.546  1.00 47.27     0.215 C 
ATOM     17  NE2 GLN A 189      -8.231  11.019  71.566  1.00 44.45    -0.370 N 
ATOM     18 2HE2 GLN A 189      -8.220  10.023  71.347  1.00  0.00     0.159 HD
ATOM     19 1HE2 GLN A 189      -7.664  11.679  71.033  1.00  0.00     0.159 HD
ATOM     20  OE1 GLN A 189      -8.982  12.731  72.812  1.00 41.09    -0.274 OA
ENDBRANCH  15  16
ENDBRANCH  14  15
ENDBRANCH  13  14
END_RES GLN A 189
BEGIN_RES ASN A 142
REMARK  2 active torsions:
REMARK  status: ('A' for Active; 'I' for Inactive)
REMARK    7  A    between atoms: CA   and  CB  
REMARK    8  A    between atoms: CB   and  CG  
REMARK       I    between atoms: CG   and  ND2 
ROOT
ATOM     21  CA  ASN A 142      -7.978  15.712  62.559  1.00 43.18     0.185 C 
ENDROOT
BRANCH  21  22
ATOM     22  CB  ASN A 142      -6.512  15.609  62.983  1.00 38.76     0.137 C 
BRANCH  22  23
ATOM     23  CG  ASN A 142      -6.331  15.678  64.488  1.00 50.71     0.217 C 
ATOM     24  ND2 ASN A 142      -6.974  14.762  65.203  1.00 55.08    -0.370 N 
ATOM     25 2HD2 ASN A 142      -7.562  14.046  64.777  1.00  0.00     0.159 HD
ATOM     26 1HD2 ASN A 142      -6.852  14.808  66.215  1.00  0.00     0.159 HD
ATOM     27  OD1 ASN A 142      -5.622  16.542  65.001  1.00 51.97    -0.274 OA
ENDBRANCH  22  23
ENDBRANCH  21  22
END_RES ASN A 142
BEGIN_RES LEU A  27
REMARK  2 active torsions:
REMARK  status: ('A' for Active; 'I' for Inactive)
REMARK    9  A    between atoms: CA   and  CB  
REMARK   10  A    between atoms: CB   and  CG  
ROOT
ATOM     28  CA  LEU A  27     -11.471  23.771  64.549  1.00 37.04     0.177 C 
ENDROOT
BRANCH  28  29
ATOM     29  CB  LEU A  27     -12.225  22.902  65.570  1.00 37.70     0.038 C 
BRANCH  29  30
ATOM     30  CG  LEU A  27     -12.664  23.455  66.926  1.00 36.32    -0.020 C 
ATOM     31  CD1 LEU A  27     -13.819  24.433  66.784  1.00 32.79     0.009 C 
ATOM     32  CD2 LEU A  27     -13.054  22.302  67.838  1.00 31.17     0.009 C 
ENDBRANCH  29  30
ENDBRANCH  28  29
END_RES LEU A  27
BEGIN_RES MET A  49
REMARK  3 active torsions:
REMARK  status: ('A' for Active; 'I' for Inactive)
REMARK   11  A    between atoms: CA   and  CB  
REMARK   12  A    between atoms: CB   and  CG  
REMARK   13  A    between atoms: CG   and  SD  
ROOT
ATOM     33  CA  MET A  49      -9.418  15.600  76.823  1.00 61.58     0.177 C 
ENDROOT
BRANCH  33  34
ATOM     34  CB  MET A  49      -8.930  15.410  75.386  1.00 62.15     0.045 C 
BRANCH  34  35
ATOM     35  CG  MET A  49      -9.830  16.058  74.346  1.00 60.24     0.076 C 
BRANCH  35  36
ATOM     36  SD  MET A  49      -8.952  16.553  72.851  1.00 77.15    -0.173 SA
ATOM     37  CE  MET A  49      -7.280  16.062  73.267  1.00 60.34     0.089 C 
ENDBRANCH  35  36
ENDBRANCH  34  35
ENDBRANCH  33  34
END_RES MET A  49
BEGIN_RES GLU A 166
REMARK  3 active torsions:
REMARK  status: ('A' for Active; 'I' for Inactive)
REMARK   14  A    between atoms: CA   and  CB  
REMARK   15  A    between atoms: CB   and  CG  
REMARK   16  A    between atoms: CG   and  CD  
ROOT
ATOM     38  CA  GLU A 166     -14.746   9.219  66.167  1.00 28.52     0.177 C 
ENDROOT
BRANCH  38  39
ATOM     39  CB  GLU A 166     -13.578   9.064  65.189  1.00 29.90     0.045 C 
BRANCH  39  40
ATOM     40  CG  GLU A 166     -13.741   7.977  64.144  1.00 36.08     0.116 C 
BRANCH  40  41
ATOM     41  CD  GLU A 166     -12.431   7.659  63.447  1.00 45.17     0.172 C 
ATOM     42  OE2 GLU A 166     -11.689   6.786  63.946  1.00 40.54    -0.648 OA
ATOM     43  OE1 GLU A 166     -12.147   8.272  62.396  1.00 50.70    -0.648 OA
ENDBRANCH  40  41
ENDBRANCH  39  40
ENDBRANCH  38  39
END_RES GLU A 166
BEGIN_RES HIS A 163
REMARK  2 active torsions:
REMARK  status: ('A' for Active; 'I' for Inactive)
REMARK   17  A    between atoms: CA   and  CB  
REMARK   18  A    between atoms: CB   and  CG  
ROOT
ATOM     44  CA  HIS A 163     -19.055  16.637  64.100  1.00 27.27     0.182 C 
ENDROOT
BRANCH  44  45
ATOM     45  CB  HIS A 163     -18.129  16.377  62.914  1.00 26.00     0.093 C 
BRANCH  45  46
ATOM     46  CG  HIS A 163     -17.070  15.359  63.197  1.00 26.66     0.028 A 
ATOM     47  ND1 HIS A 163     -15.735  15.685  63.300  1.00 26.97    -0.354 N 
ATOM     48  CE1 HIS A 163     -15.035  14.592  63.546  1.00 30.44     0.180 A 
ATOM     49  HD1 HIS A 163     -15.348  16.624  63.201  1.00  0.00     0.166 HD
ATOM     50  NE2 HIS A 163     -15.868  13.568  63.601  1.00 30.00    -0.360 N 
ATOM     51  CD2 HIS A 163     -17.147  14.020  63.385  1.00 29.24     0.114 A 
ATOM     52  HE2 HIS A 163     -15.603  12.599  63.775  1.00  0.00     0.166 HD
ENDBRANCH  45  46
ENDBRANCH  44  45
END_RES HIS A 163
BEGIN_RES HIS A 172
REMARK  2 active torsions:
REMARK  status: ('A' for Active; 'I' for Inactive)
REMARK   19  A    between atoms: CA   and  CB  
REMARK   20  A    between atoms: CB   and  CG  
ROOT
ATOM     53  CA  HIS A 172     -18.444   9.111  64.049  1.00 29.85     0.182 C 
ENDROOT
BRANCH  53  54
ATOM     54  CB  HIS A 172     -18.188  10.085  62.898  1.00 26.76     0.093 C 
BRANCH  54  55
ATOM     55  CG  HIS A 172     -16.841   9.923  62.267  1.00 28.76     0.028 A 
ATOM     56  CD2 HIS A 172     -15.624  10.393  62.629  1.00 29.36     0.114 A 
ATOM     57  NE2 HIS A 172     -14.720   9.936  61.701  1.00 33.77    -0.360 N 
ATOM     58  CE1 HIS A 172     -15.358   9.206  60.803  1.00 32.44     0.180 A 
ATOM     59  HE2 HIS A 172     -13.718  10.130  61.705  1.00  0.00     0.166 HD
ATOM     60  ND1 HIS A 172     -16.640   9.179  61.123  1.00 29.32    -0.354 N 
ATOM     61  HD1 HIS A 172     -17.367   8.685  60.606  1.00  0.00     0.166 HD
ENDBRANCH  54  55
ENDBRANCH  53  54
END_RES HIS A 172
BEGIN_RES THR A  26
REMARK  2 active torsions:
REMARK  status: ('A' for Active; 'I' for Inactive)
REMARK   21  A    between atoms: CA   and  CB  
REMARK   22  A    between atoms: CB   and  OG1 
ROOT
ATOM     62  CA  THR A  26      -8.224  25.031  66.060  1.00 43.98     0.205 C 
ENDROOT
BRANCH  62  63
ATOM     63  CB  THR A  26      -7.184  25.490  65.034  1.00 45.90     0.146 C 
ATOM     64  CG2 THR A  26      -7.850  25.948  63.735  1.00 47.20     0.042 C 
BRANCH  63  65
ATOM     65  OG1 THR A  26      -6.404  26.559  65.579  1.00 50.51    -0.393 OA
ATOM     66  HG1 THR A  26      -6.970  27.286  65.811  1.00  0.00     0.210 HD
ENDBRANCH  63  65
ENDBRANCH  62  63
END_RES THR A  26
ENDMDL
MODEL 7
REMARK VINA RESULT:      -7.1      2.068      4.469
REMARK  14 active torsions:
REMARK  status: ('A' for Active; 'I' for Inactive)
REMARK    1  A    between atoms: C2_2  and  O1_3 
REMARK    2  A    between atoms: O1_3  and  C3_4 
REMARK    3  A    between atoms: C3_4  and  C4_6 
REMARK    4  A    between atoms: C5_7  and  C6_8 
REMARK    5  A    between atoms: C6_8  and  C7_9 
REMARK    6  A    between atoms: C6_8  and  N2_14 
REMARK    7  A    between atoms: C7_9  and  C8_10 
REMARK    8  A    between atoms: C8_10  and  C9_11 
REMARK       I    between atoms: C9_11  and  N1_12 
REMARK       I    between atoms: N2_14  and  C10_15 
REMARK    9  A    between atoms: C10_15  and  C11_17 
REMARK   10  A    between atoms: C11_17  and  C12_18 
REMARK   11  A    between atoms: C11_17  and  N3_25 
REMARK   12  A    between atoms: C12_18  and  C13_19 
REMARK   13  A    between atoms: C23_30  and  N4_31 
REMARK       I    between atoms: N4_31  and  C24_32 
REMARK   14  A    between atoms: C24_32  and  C25_34 
ROOT
HETATM    1  C1  UNL     1     -11.179   6.066  70.665  1.00  0.00     0.034 C 
HETATM    2  C2  UNL     1     -12.325   6.715  71.410  1.00  0.00     0.174 C 
ENDROOT
BRANCH   2   3
HETATM    3  O1  UNL     1     -12.368   8.102  71.109  1.00  0.00    -0.319 OA
BRANCH   3   4
HETATM    4  C3  UNL     1     -13.411   8.928  71.491  1.00  0.00     0.282 C 
HETATM    5  O2  UNL     1     -14.561   8.436  71.527  1.00  0.00    -0.260 OA
BRANCH   4   6
HETATM    6  C4  UNL     1     -13.147  10.321  71.831  1.00  0.00     0.080 C 
HETATM    7  C5  UNL     1     -12.509  11.108  71.013  1.00  0.00     0.004 C 
BRANCH   7   8
HETATM    8  C6  UNL     1     -12.208  12.532  71.297  1.00  0.00     0.108 C 
BRANCH   8   9
HETATM    9  C7  UNL     1     -13.352  13.082  72.128  1.00  0.00     0.038 C 
BRANCH   9  10
HETATM   10  C8  UNL     1     -12.860  14.103  73.120  1.00  0.00     0.105 C 
BRANCH  10  11
HETATM   11  C9  UNL     1     -13.376  15.435  72.753  1.00  0.00     0.215 C 
HETATM   12  N1  UNL     1     -13.566  16.415  73.752  1.00  0.00    -0.370 N 
HETATM   13  H13 UNL     1     -13.676  16.133  74.737  1.00  0.00     0.159 HD
HETATM   14  H14 UNL     1     -13.597  17.413  73.504  1.00  0.00     0.159 HD
HETATM   15  O3  UNL     1     -13.645  15.706  71.568  1.00  0.00    -0.274 OA
ENDBRANCH  10  11
ENDBRANCH   9  10
ENDBRANCH   8   9
BRANCH   8  16
HETATM   16  N2  UNL     1     -11.983  13.316  70.107  1.00  0.00    -0.351 N 
HETATM   17  C10 UNL     1     -10.875  14.189  69.948  1.00  0.00     0.241 C 
HETATM   18  O4  UNL     1     -10.068  14.264  70.900  1.00  0.00    -0.271 OA
HETATM   19  H15 UNL     1     -12.680  13.221  69.342  1.00  0.00     0.163 HD
BRANCH  17  20
HETATM   20  C11 UNL     1     -10.766  14.940  68.665  1.00  0.00     0.188 C 
BRANCH  20  21
HETATM   21  C12 UNL     1     -11.396  16.283  68.754  1.00  0.00     0.074 C 
BRANCH  21  22
HETATM   22  C13 UNL     1     -10.450  17.360  68.477  1.00  0.00    -0.056 A 
HETATM   23  C14 UNL     1     -10.151  17.821  67.219  1.00  0.00     0.007 A 
HETATM   24  C15 UNL     1      -9.231  18.833  67.011  1.00  0.00     0.001 A 
HETATM   25  C16 UNL     1      -8.574  19.422  68.069  1.00  0.00     0.000 A 
HETATM   26  C17 UNL     1      -8.870  18.965  69.333  1.00  0.00     0.001 A 
HETATM   27  C18 UNL     1      -9.783  17.959  69.549  1.00  0.00     0.007 A 
ENDBRANCH  21  22
ENDBRANCH  20  21
BRANCH  20  28
HETATM   28  N3  UNL     1     -11.087  14.147  67.520  1.00  0.00    -0.309 N 
HETATM   29  C19 UNL     1     -12.106  14.498  66.676  1.00  0.00     0.096 A 
HETATM   30  C20 UNL     1     -12.447  13.785  65.563  1.00  0.00     0.026 A 
HETATM   31  C21 UNL     1     -11.754  12.646  65.238  1.00  0.00    -0.028 A 
HETATM   32  C22 UNL     1     -12.068  11.826  64.048  1.00  0.00     0.050 C 
HETATM   33  C23 UNL     1     -10.719  12.260  66.063  1.00  0.00     0.110 A 
HETATM   34  C29 UNL     1     -10.425  13.030  67.179  1.00  0.00     0.275 A 
HETATM   35  O7  UNL     1      -9.467  12.634  67.909  1.00  0.00    -0.265 OA
BRANCH  33  36
HETATM   36  N4  UNL     1      -9.989  11.086  65.745  1.00  0.00    -0.317 N 
HETATM   37  C24 UNL     1     -10.229   9.864  66.419  1.00  0.00     0.277 C 
HETATM   38  O5  UNL     1     -11.107   9.827  67.315  1.00  0.00    -0.266 OA
HETATM   39  H29 UNL     1      -9.263  11.119  65.006  1.00  0.00     0.169 HD
BRANCH  37  40
HETATM   40  C25 UNL     1      -9.462   8.663  66.074  1.00  0.00     0.154 A 
HETATM   41  C26 UNL     1      -9.463   7.471  66.769  1.00  0.00     0.074 A 
HETATM   42  C27 UNL     1      -8.611   6.605  66.112  1.00  0.00     0.077 A 
HETATM   43  C28 UNL     1      -8.264   5.203  66.457  1.00  0.00     0.079 C 
HETATM   44  O6  UNL     1      -8.145   7.274  65.087  1.00  0.00    -0.218 OA
HETATM   45  N5  UNL     1      -8.627   8.473  65.046  1.00  0.00    -0.123 NA
ENDBRANCH  37  40
ENDBRANCH  33  36
ENDBRANCH  20  28
ENDBRANCH  17  20
ENDBRANCH   8  16
ENDBRANCH   7   8
ENDBRANCH   4   6
ENDBRANCH   3   4
ENDBRANCH   2   3
TORSDOF 14
BEGIN_RES HIS A  41
REMARK  2 active torsions:
REMARK  status: ('A' for Active; 'I' for Inactive)
REMARK    1  A    between atoms: CA   and  CB  
REMARK    2  A    between atoms: CB   and  CG  
ROOT
ATOM      1  CA  HIS A  41     -13.820  21.037  73.265  1.00 38.89     0.182 C 
ENDROOT
BRANCH   1   2
ATOM      2  CB  HIS A  41     -13.705  19.545  72.937  1.00 42.38     0.093 C 
BRANCH   2   3
ATOM      3  CG  HIS A  41     -14.046  19.205  71.520  1.00 37.90     0.028 A 
ATOM      4  CD2 HIS A  41     -13.407  19.475  70.358  1.00 37.33     0.114 A 
ATOM      5  NE2 HIS A  41     -14.155  18.923  69.347  1.00 41.88    -0.360 N 
ATOM      6  CE1 HIS A  41     -15.213  18.330  69.871  1.00 41.55     0.180 A 
ATOM      7  HE2 HIS A  41     -13.930  18.964  68.353  1.00  0.00     0.166 HD
ATOM      8  ND1 HIS A  41     -15.170  18.483  71.181  1.00 36.57    -0.354 N 
ATOM      9  HD1 HIS A  41     -15.861  18.123  71.840  1.00  0.00     0.166 HD
ENDBRANCH   2   3
ENDBRANCH   1   2
END_RES HIS A  41
BEGIN_RES CYS A 145
REMARK  1 active torsions:
REMARK  status: ('A' for Active; 'I' for Inactive)
REMARK    3  A    between atoms: CA   and  CB  
ROOT
ATOM     10  CA  CYS A 145     -14.607  19.162  64.101  1.00 29.71     0.186 C 
ENDROOT
BRANCH  10  11
ATOM     11  CB  CYS A 145     -14.100  19.110  65.541  1.00 31.75     0.120 C 
ATOM     12  SG  CYS A 145     -13.837  17.436  66.155  1.00 39.68    -0.095 SA
ENDBRANCH  10  11
END_RES CYS A 145
BEGIN_RES GLN A 189
REMARK  3 active torsions:
REMARK  status: ('A' for Active; 'I' for Inactive)
REMARK    4  A    between atoms: CA   and  CB  
REMARK    5  A    between atoms: CB   and  CG  
REMARK    6  A    between atoms: CG   and  CD  
REMARK       I    between atoms: CD   and  NE2 
ROOT
ATOM     13  CA  GLN A 189     -11.641  10.633  75.105  1.00 38.41     0.177 C 
ENDROOT
BRANCH  13  14
ATOM     14  CB  GLN A 189     -10.259  11.109  74.679  1.00 37.59     0.044 C 
BRANCH  14  15
ATOM     15  CG  GLN A 189      -9.826  10.578  73.322  1.00 45.60     0.105 C 
BRANCH  15  16
ATOM     16  CD  GLN A 189      -8.900  11.528  72.589  1.00 47.27     0.215 C 
ATOM     17  NE2 GLN A 189      -8.823  11.382  71.271  1.00 44.45    -0.370 N 
ATOM     18 2HE2 GLN A 189      -9.352  10.672  70.764  1.00  0.00     0.159 HD
ATOM     19 1HE2 GLN A 189      -8.200  12.021  70.778  1.00  0.00     0.159 HD
ATOM     20  OE1 GLN A 189      -8.262  12.384  73.202  1.00 41.09    -0.274 OA
ENDBRANCH  15  16
ENDBRANCH  14  15
ENDBRANCH  13  14
END_RES GLN A 189
BEGIN_RES ASN A 142
REMARK  2 active torsions:
REMARK  status: ('A' for Active; 'I' for Inactive)
REMARK    7  A    between atoms: CA   and  CB  
REMARK    8  A    between atoms: CB   and  CG  
REMARK       I    between atoms: CG   and  ND2 
ROOT
ATOM     21  CA  ASN A 142      -7.978  15.712  62.559  1.00 43.18     0.185 C 
ENDROOT
BRANCH  21  22
ATOM     22  CB  ASN A 142      -6.512  15.609  62.983  1.00 38.76     0.137 C 
BRANCH  22  23
ATOM     23  CG  ASN A 142      -6.331  15.677  64.488  1.00 50.71     0.217 C 
ATOM     24  ND2 ASN A 142      -5.375  14.912  65.003  1.00 55.08    -0.370 N 
ATOM     25 2HD2 ASN A 142      -4.787  14.307  64.430  1.00  0.00     0.159 HD
ATOM     26 1HD2 ASN A 142      -5.254  14.958  66.015  1.00  0.00     0.159 HD
ATOM     27  OD1 ASN A 142      -7.040  16.407  65.179  1.00 51.97    -0.274 OA
ENDBRANCH  22  23
ENDBRANCH  21  22
END_RES ASN A 142
BEGIN_RES LEU A  27
REMARK  2 active torsions:
REMARK  status: ('A' for Active; 'I' for Inactive)
REMARK    9  A    between atoms: CA   and  CB  
REMARK   10  A    between atoms: CB   and  CG  
ROOT
ATOM     28  CA  LEU A  27     -11.471  23.771  64.549  1.00 37.04     0.177 C 
ENDROOT
BRANCH  28  29
ATOM     29  CB  LEU A  27     -12.225  22.902  65.570  1.00 37.70     0.038 C 
BRANCH  29  30
ATOM     30  CG  LEU A  27     -12.490  23.387  66.995  1.00 36.32    -0.020 C 
ATOM     31  CD1 LEU A  27     -13.844  24.070  67.111  1.00 32.79     0.009 C 
ATOM     32  CD2 LEU A  27     -12.409  22.206  67.952  1.00 31.17     0.009 C 
ENDBRANCH  29  30
ENDBRANCH  28  29
END_RES LEU A  27
BEGIN_RES MET A  49
REMARK  3 active torsions:
REMARK  status: ('A' for Active; 'I' for Inactive)
REMARK   11  A    between atoms: CA   and  CB  
REMARK   12  A    between atoms: CB   and  CG  
REMARK   13  A    between atoms: CG   and  SD  
ROOT
ATOM     33  CA  MET A  49      -9.418  15.600  76.823  1.00 61.58     0.177 C 
ENDROOT
BRANCH  33  34
ATOM     34  CB  MET A  49      -8.930  15.410  75.386  1.00 62.15     0.045 C 
BRANCH  34  35
ATOM     35  CG  MET A  49      -9.872  15.988  74.342  1.00 60.24     0.076 C 
BRANCH  35  36
ATOM     36  SD  MET A  49      -9.324  17.577  73.689  1.00 77.15    -0.173 SA
ATOM     37  CE  MET A  49      -7.880  17.077  72.755  1.00 60.34     0.089 C 
ENDBRANCH  35  36
ENDBRANCH  34  35
ENDBRANCH  33  34
END_RES MET A  49
BEGIN_RES GLU A 166
REMARK  3 active torsions:
REMARK  status: ('A' for Active; 'I' for Inactive)
REMARK   14  A    between atoms: CA   and  CB  
REMARK   15  A    between atoms: CB   and  CG  
REMARK   16  A    between atoms: CG   and  CD  
ROOT
ATOM     38  CA  GLU A 166     -14.746   9.219  66.167  1.00 28.52     0.177 C 
ENDROOT
BRANCH  38  39
ATOM     39  CB  GLU A 166     -13.578   9.064  65.189  1.00 29.90     0.045 C 
BRANCH  39  40
ATOM     40  CG  GLU A 166     -13.640   7.848  64.285  1.00 36.08     0.116 C 
BRANCH  40  41
ATOM     41  CD  GLU A 166     -12.260   7.407  63.831  1.00 45.17     0.172 C 
ATOM     42  OE2 GLU A 166     -11.776   6.367  64.324  1.00 40.54    -0.648 OA
ATOM     43  OE1 GLU A 166     -11.664   8.095  62.974  1.00 50.70    -0.648 OA
ENDBRANCH  40  41
ENDBRANCH  39  40
ENDBRANCH  38  39
END_RES GLU A 166
BEGIN_RES HIS A 163
REMARK  2 active torsions:
REMARK  status: ('A' for Active; 'I' for Inactive)
REMARK   17  A    between atoms: CA   and  CB  
REMARK   18  A    between atoms: CB   and  CG  
ROOT
ATOM     44  CA  HIS A 163     -19.055  16.637  64.100  1.00 27.27     0.182 C 
ENDROOT
BRANCH  44  45
ATOM     45  CB  HIS A 163     -18.129  16.377  62.914  1.00 26.00     0.093 C 
BRANCH  45  46
ATOM     46  CG  HIS A 163     -17.108  15.315  63.176  1.00 26.66     0.028 A 
ATOM     47  ND1 HIS A 163     -15.757  15.583  63.233  1.00 26.97    -0.354 N 
ATOM     48  CE1 HIS A 163     -15.099  14.462  63.471  1.00 30.44     0.180 A 
ATOM     49  HD1 HIS A 163     -15.332  16.502  63.110  1.00  0.00     0.166 HD
ATOM     50  NE2 HIS A 163     -15.974  13.478  63.566  1.00 30.00    -0.360 N 
ATOM     51  CD2 HIS A 163     -17.238  13.984  63.385  1.00 29.24     0.114 A 
ATOM     52  HE2 HIS A 163     -15.748  12.499  63.745  1.00  0.00     0.166 HD
ENDBRANCH  45  46
ENDBRANCH  44  45
END_RES HIS A 163
BEGIN_RES HIS A 172
REMARK  2 active torsions:
REMARK  status: ('A' for Active; 'I' for Inactive)
REMARK   19  A    between atoms: CA   and  CB  
REMARK   20  A    between atoms: CB   and  CG  
ROOT
ATOM     53  CA  HIS A 172     -18.444   9.111  64.049  1.00 29.85     0.182 C 
ENDROOT
BRANCH  53  54
ATOM     54  CB  HIS A 172     -18.188  10.085  62.898  1.00 26.76     0.093 C 
BRANCH  54  55
ATOM     55  CG  HIS A 172     -16.927   9.800  62.144  1.00 28.76     0.028 A 
ATOM     56  CD2 HIS A 172     -16.709   9.111  60.999  1.00 29.36     0.114 A 
ATOM     57  NE2 HIS A 172     -15.361   9.167  60.742  1.00 33.77    -0.360 N 
ATOM     58  CE1 HIS A 172     -14.772   9.871  61.693  1.00 32.44     0.180 A 
ATOM     59  HE2 HIS A 172     -14.891   8.735  59.946  1.00  0.00     0.166 HD
ATOM     60  ND1 HIS A 172     -15.695  10.269  62.550  1.00 29.32    -0.354 N 
ATOM     61  HD1 HIS A 172     -15.524  10.833  63.382  1.00  0.00     0.166 HD
ENDBRANCH  54  55
ENDBRANCH  53  54
END_RES HIS A 172
BEGIN_RES THR A  26
REMARK  2 active torsions:
REMARK  status: ('A' for Active; 'I' for Inactive)
REMARK   21  A    between atoms: CA   and  CB  
REMARK   22  A    between atoms: CB   and  OG1 
ROOT
ATOM     62  CA  THR A  26      -8.224  25.031  66.060  1.00 43.98     0.205 C 
ENDROOT
BRANCH  62  63
ATOM     63  CB  THR A  26      -7.184  25.490  65.034  1.00 45.90     0.146 C 
ATOM     64  CG2 THR A  26      -7.852  25.998  63.755  1.00 47.20     0.042 C 
BRANCH  63  65
ATOM     65  OG1 THR A  26      -6.371  26.525  65.597  1.00 50.51    -0.393 OA
ATOM     66  HG1 THR A  26      -5.536  26.561  65.145  1.00  0.00     0.210 HD
ENDBRANCH  63  65
ENDBRANCH  62  63
END_RES THR A  26
ENDMDL
MODEL 8
REMARK VINA RESULT:      -7.1      2.196      6.475
REMARK  14 active torsions:
REMARK  status: ('A' for Active; 'I' for Inactive)
REMARK    1  A    between atoms: C2_2  and  O1_3 
REMARK    2  A    between atoms: O1_3  and  C3_4 
REMARK    3  A    between atoms: C3_4  and  C4_6 
REMARK    4  A    between atoms: C5_7  and  C6_8 
REMARK    5  A    between atoms: C6_8  and  C7_9 
REMARK    6  A    between atoms: C6_8  and  N2_14 
REMARK    7  A    between atoms: C7_9  and  C8_10 
REMARK    8  A    between atoms: C8_10  and  C9_11 
REMARK       I    between atoms: C9_11  and  N1_12 
REMARK       I    between atoms: N2_14  and  C10_15 
REMARK    9  A    between atoms: C10_15  and  C11_17 
REMARK   10  A    between atoms: C11_17  and  C12_18 
REMARK   11  A    between atoms: C11_17  and  N3_25 
REMARK   12  A    between atoms: C12_18  and  C13_19 
REMARK   13  A    between atoms: C23_30  and  N4_31 
REMARK       I    between atoms: N4_31  and  C24_32 
REMARK   14  A    between atoms: C24_32  and  C25_34 
ROOT
HETATM    1  C1  UNL     1     -11.291   6.433  70.437  1.00  0.00     0.034 C 
HETATM    2  C2  UNL     1     -12.137   6.801  71.637  1.00  0.00     0.174 C 
ENDROOT
BRANCH   2   3
HETATM    3  O1  UNL     1     -13.385   7.321  71.204  1.00  0.00    -0.319 OA
BRANCH   3   4
HETATM    4  C3  UNL     1     -14.029   8.371  71.834  1.00  0.00     0.282 C 
HETATM    5  O2  UNL     1     -15.223   8.205  72.169  1.00  0.00    -0.260 OA
BRANCH   4   6
HETATM    6  C4  UNL     1     -13.314   9.617  72.083  1.00  0.00     0.080 C 
HETATM    7  C5  UNL     1     -13.102  10.477  71.130  1.00  0.00     0.004 C 
BRANCH   7   8
HETATM    8  C6  UNL     1     -12.382  11.761  71.315  1.00  0.00     0.108 C 
BRANCH   8   9
HETATM    9  C7  UNL     1     -13.186  12.595  72.295  1.00  0.00     0.038 C 
BRANCH   9  10
HETATM   10  C8  UNL     1     -12.589  13.968  72.457  1.00  0.00     0.105 C 
BRANCH  10  11
HETATM   11  C9  UNL     1     -13.644  14.986  72.294  1.00  0.00     0.215 C 
HETATM   12  N1  UNL     1     -14.536  14.904  71.202  1.00  0.00    -0.370 N 
HETATM   13  H13 UNL     1     -14.274  14.373  70.359  1.00  0.00     0.159 HD
HETATM   14  H14 UNL     1     -15.451  15.374  71.241  1.00  0.00     0.159 HD
HETATM   15  O3  UNL     1     -13.757  15.918  73.111  1.00  0.00    -0.274 OA
ENDBRANCH  10  11
ENDBRANCH   9  10
ENDBRANCH   8   9
BRANCH   8  16
HETATM   16  N2  UNL     1     -12.146  12.466  70.079  1.00  0.00    -0.351 N 
HETATM   17  C10 UNL     1     -10.847  12.720  69.564  1.00  0.00     0.241 C 
HETATM   18  O4  UNL     1      -9.877  12.301  70.234  1.00  0.00    -0.271 OA
HETATM   19  H15 UNL     1     -12.981  12.795  69.557  1.00  0.00     0.163 HD
BRANCH  17  20
HETATM   20  C11 UNL     1     -10.748  13.461  68.276  1.00  0.00     0.188 C 
BRANCH  20  21
HETATM   21  C12 UNL     1      -9.863  12.767  67.303  1.00  0.00     0.074 C 
BRANCH  21  22
HETATM   22  C13 UNL     1     -10.510  12.563  66.010  1.00  0.00    -0.056 A 
HETATM   23  C14 UNL     1      -9.846  12.216  64.860  1.00  0.00     0.007 A 
HETATM   24  C15 UNL     1     -10.507  12.054  63.656  1.00  0.00     0.001 A 
HETATM   25  C16 UNL     1     -11.869  12.236  63.565  1.00  0.00     0.000 A 
HETATM   26  C17 UNL     1     -12.541  12.583  64.715  1.00  0.00     0.001 A 
HETATM   27  C18 UNL     1     -11.892  12.747  65.917  1.00  0.00     0.007 A 
ENDBRANCH  21  22
ENDBRANCH  20  21
BRANCH  20  28
HETATM   28  N3  UNL     1     -10.548  14.866  68.448  1.00  0.00    -0.309 N 
HETATM   29  C19 UNL     1     -11.549  15.673  68.918  1.00  0.00     0.096 A 
HETATM   30  C20 UNL     1     -11.410  17.017  69.113  1.00  0.00     0.026 A 
HETATM   31  C21 UNL     1     -10.214  17.630  68.834  1.00  0.00    -0.028 A 
HETATM   32  C22 UNL     1      -9.992  19.081  69.022  1.00  0.00     0.050 C 
HETATM   33  C23 UNL     1      -9.181  16.851  68.360  1.00  0.00     0.110 A 
HETATM   34  C29 UNL     1      -9.390  15.491  68.184  1.00  0.00     0.275 A 
HETATM   35  O7  UNL     1      -8.411  14.815  67.743  1.00  0.00    -0.265 OA
BRANCH  33  36
HETATM   36  N4  UNL     1      -7.936  17.465  68.066  1.00  0.00    -0.317 N 
HETATM   37  C24 UNL     1      -7.624  17.909  66.757  1.00  0.00     0.277 C 
HETATM   38  O5  UNL     1      -8.472  17.750  65.844  1.00  0.00    -0.266 OA
HETATM   39  H29 UNL     1      -7.238  17.594  68.820  1.00  0.00     0.169 HD
BRANCH  37  40
HETATM   40  C25 UNL     1      -6.333  18.541  66.476  1.00  0.00     0.154 A 
HETATM   41  C26 UNL     1      -5.692  18.573  65.254  1.00  0.00     0.074 A 
HETATM   42  C27 UNL     1      -4.508  19.264  65.421  1.00  0.00     0.077 A 
HETATM   43  C28 UNL     1      -3.462  19.572  64.414  1.00  0.00     0.079 C 
HETATM   44  O6  UNL     1      -4.474  19.610  66.684  1.00  0.00    -0.218 OA
HETATM   45  N5  UNL     1      -5.525  19.199  67.316  1.00  0.00    -0.123 NA
ENDBRANCH  37  40
ENDBRANCH  33  36
ENDBRANCH  20  28
ENDBRANCH  17  20
ENDBRANCH   8  16
ENDBRANCH   7   8
ENDBRANCH   4   6
ENDBRANCH   3   4
ENDBRANCH   2   3
TORSDOF 14
BEGIN_RES HIS A  41
REMARK  2 active torsions:
REMARK  status: ('A' for Active; 'I' for Inactive)
REMARK    1  A    between atoms: CA   and  CB  
REMARK    2  A    between atoms: CB   and  CG  
ROOT
ATOM      1  CA  HIS A  41     -13.820  21.037  73.265  1.00 38.89     0.182 C 
ENDROOT
BRANCH   1   2
ATOM      2  CB  HIS A  41     -13.705  19.545  72.937  1.00 42.38     0.093 C 
BRANCH   2   3
ATOM      3  CG  HIS A  41     -14.117  19.195  71.542  1.00 37.90     0.028 A 
ATOM      4  CD2 HIS A  41     -15.130  18.427  71.075  1.00 37.33     0.114 A 
ATOM      5  NE2 HIS A  41     -15.054  18.448  69.704  1.00 41.88    -0.360 N 
ATOM      6  CE1 HIS A  41     -14.035  19.207  69.341  1.00 41.55     0.180 A 
ATOM      7  HE2 HIS A  41     -15.684  17.957  69.068  1.00  0.00     0.166 HD
ATOM      8  ND1 HIS A  41     -13.454  19.672  70.431  1.00 36.57    -0.354 N 
ATOM      9  HD1 HIS A  41     -12.641  20.289  70.449  1.00  0.00     0.166 HD
ENDBRANCH   2   3
ENDBRANCH   1   2
END_RES HIS A  41
BEGIN_RES CYS A 145
REMARK  1 active torsions:
REMARK  status: ('A' for Active; 'I' for Inactive)
REMARK    3  A    between atoms: CA   and  CB  
ROOT
ATOM     10  CA  CYS A 145     -14.607  19.162  64.101  1.00 29.71     0.186 C 
ENDROOT
BRANCH  10  11
ATOM     11  CB  CYS A 145     -14.100  19.110  65.541  1.00 31.75     0.120 C 
ATOM     12  SG  CYS A 145     -13.530  17.478  66.048  1.00 39.68    -0.095 SA
ENDBRANCH  10  11
END_RES CYS A 145
BEGIN_RES GLN A 189
REMARK  3 active torsions:
REMARK  status: ('A' for Active; 'I' for Inactive)
REMARK    4  A    between atoms: CA   and  CB  
REMARK    5  A    between atoms: CB   and  CG  
REMARK    6  A    between atoms: CG   and  CD  
REMARK       I    between atoms: CD   and  NE2 
ROOT
ATOM     13  CA  GLN A 189     -11.641  10.633  75.105  1.00 38.41     0.177 C 
ENDROOT
BRANCH  13  14
ATOM     14  CB  GLN A 189     -10.259  11.109  74.679  1.00 37.59     0.044 C 
BRANCH  14  15
ATOM     15  CG  GLN A 189      -9.776  10.485  73.380  1.00 45.60     0.105 C 
BRANCH  15  16
ATOM     16  CD  GLN A 189      -8.675   9.465  73.593  1.00 47.27     0.215 C 
ATOM     17  NE2 GLN A 189      -9.061   8.232  73.903  1.00 44.45    -0.370 N 
ATOM     18 2HE2 GLN A 189     -10.042   7.970  73.997  1.00  0.00     0.159 HD
ATOM     19 1HE2 GLN A 189      -8.320   7.546  74.047  1.00  0.00     0.159 HD
ATOM     20  OE1 GLN A 189      -7.491   9.783  73.481  1.00 41.09    -0.274 OA
ENDBRANCH  15  16
ENDBRANCH  14  15
ENDBRANCH  13  14
END_RES GLN A 189
BEGIN_RES ASN A 142
REMARK  2 active torsions:
REMARK  status: ('A' for Active; 'I' for Inactive)
REMARK    7  A    between atoms: CA   and  CB  
REMARK    8  A    between atoms: CB   and  CG  
REMARK       I    between atoms: CG   and  ND2 
ROOT
ATOM     21  CA  ASN A 142      -7.978  15.712  62.559  1.00 43.18     0.185 C 
ENDROOT
BRANCH  21  22
ATOM     22  CB  ASN A 142      -6.512  15.609  62.983  1.00 38.76     0.137 C 
BRANCH  22  23
ATOM     23  CG  ASN A 142      -6.346  15.076  64.393  1.00 50.71     0.217 C 
ATOM     24  ND2 ASN A 142      -7.459  14.914  65.099  1.00 55.08    -0.370 N 
ATOM     25 2HD2 ASN A 142      -8.383  15.134  64.726  1.00  0.00     0.159 HD
ATOM     26 1HD2 ASN A 142      -7.348  14.556  66.048  1.00  0.00     0.159 HD
ATOM     27  OD1 ASN A 142      -5.232  14.811  64.843  1.00 51.97    -0.274 OA
ENDBRANCH  22  23
ENDBRANCH  21  22
END_RES ASN A 142
BEGIN_RES LEU A  27
REMARK  2 active torsions:
REMARK  status: ('A' for Active; 'I' for Inactive)
REMARK    9  A    between atoms: CA   and  CB  
REMARK   10  A    between atoms: CB   and  CG  
ROOT
ATOM     28  CA  LEU A  27     -11.471  23.771  64.549  1.00 37.04     0.177 C 
ENDROOT
BRANCH  28  29
ATOM     29  CB  LEU A  27     -12.225  22.902  65.570  1.00 37.70     0.038 C 
BRANCH  29  30
ATOM     30  CG  LEU A  27     -12.488  23.385  66.996  1.00 36.32    -0.020 C 
ATOM     31  CD1 LEU A  27     -13.844  24.060  67.117  1.00 32.79     0.009 C 
ATOM     32  CD2 LEU A  27     -12.395  22.206  67.952  1.00 31.17     0.009 C 
ENDBRANCH  29  30
ENDBRANCH  28  29
END_RES LEU A  27
BEGIN_RES MET A  49
REMARK  3 active torsions:
REMARK  status: ('A' for Active; 'I' for Inactive)
REMARK   11  A    between atoms: CA   and  CB  
REMARK   12  A    between atoms: CB   and  CG  
REMARK   13  A    between atoms: CG   and  SD  
ROOT
ATOM     33  CA  MET A  49      -9.418  15.600  76.823  1.00 61.58     0.177 C 
ENDROOT
BRANCH  33  34
ATOM     34  CB  MET A  49      -8.930  15.410  75.386  1.00 62.15     0.045 C 
BRANCH  34  35
ATOM     35  CG  MET A  49      -9.998  15.685  74.339  1.00 60.24     0.076 C 
BRANCH  35  36
ATOM     36  SD  MET A  49     -10.828  17.269  74.565  1.00 77.15    -0.173 SA
ATOM     37  CE  MET A  49     -10.672  17.967  72.922  1.00 60.34     0.089 C 
ENDBRANCH  35  36
ENDBRANCH  34  35
ENDBRANCH  33  34
END_RES MET A  49
BEGIN_RES GLU A 166
REMARK  3 active torsions:
REMARK  status: ('A' for Active; 'I' for Inactive)
REMARK   14  A    between atoms: CA   and  CB  
REMARK   15  A    between atoms: CB   and  CG  
REMARK   16  A    between atoms: CG   and  CD  
ROOT
ATOM     38  CA  GLU A 166     -14.746   9.219  66.167  1.00 28.52     0.177 C 
ENDROOT
BRANCH  38  39
ATOM     39  CB  GLU A 166     -13.578   9.064  65.189  1.00 29.90     0.045 C 
BRANCH  39  40
ATOM     40  CG  GLU A 166     -13.684   7.899  64.223  1.00 36.08     0.116 C 
BRANCH  40  41
ATOM     41  CD  GLU A 166     -12.434   7.748  63.377  1.00 45.17     0.172 C 
ATOM     42  OE2 GLU A 166     -12.126   8.676  62.599  1.00 40.54    -0.648 OA
ATOM     43  OE1 GLU A 166     -11.753   6.706  63.495  1.00 50.70    -0.648 OA
ENDBRANCH  40  41
ENDBRANCH  39  40
ENDBRANCH  38  39
END_RES GLU A 166
BEGIN_RES HIS A 163
REMARK  2 active torsions:
REMARK  status: ('A' for Active; 'I' for Inactive)
REMARK   17  A    between atoms: CA   and  CB  
REMARK   18  A    between atoms: CB   and  CG  
ROOT
ATOM     44  CA  HIS A 163     -19.055  16.637  64.100  1.00 27.27     0.182 C 
ENDROOT
BRANCH  44  45
ATOM     45  CB  HIS A 163     -18.129  16.377  62.914  1.00 26.00     0.093 C 
BRANCH  45  46
ATOM     46  CG  HIS A 163     -17.076  15.352  63.194  1.00 26.66     0.028 A 
ATOM     47  ND1 HIS A 163     -15.740  15.672  63.304  1.00 26.97    -0.354 N 
ATOM     48  CE1 HIS A 163     -15.045  14.574  63.545  1.00 30.44     0.180 A 
ATOM     49  HD1 HIS A 163     -15.348  16.609  63.214  1.00  0.00     0.166 HD
ATOM     50  NE2 HIS A 163     -15.883  13.553  63.590  1.00 30.00    -0.360 N 
ATOM     51  CD2 HIS A 163     -17.159  14.013  63.372  1.00 29.24     0.114 A 
ATOM     52  HE2 HIS A 163     -15.624  12.581  63.759  1.00  0.00     0.166 HD
ENDBRANCH  45  46
ENDBRANCH  44  45
END_RES HIS A 163
BEGIN_RES HIS A 172
REMARK  2 active torsions:
REMARK  status: ('A' for Active; 'I' for Inactive)
REMARK   19  A    between atoms: CA   and  CB  
REMARK   20  A    between atoms: CB   and  CG  
ROOT
ATOM     53  CA  HIS A 172     -18.444   9.111  64.049  1.00 29.85     0.182 C 
ENDROOT
BRANCH  53  54
ATOM     54  CB  HIS A 172     -18.188  10.085  62.898  1.00 26.76     0.093 C 
BRANCH  54  55
ATOM     55  CG  HIS A 172     -16.847   9.913  62.257  1.00 28.76     0.028 A 
ATOM     56  CD2 HIS A 172     -15.622  10.363  62.618  1.00 29.36     0.114 A 
ATOM     57  NE2 HIS A 172     -14.729   9.906  61.680  1.00 33.77    -0.360 N 
ATOM     58  CE1 HIS A 172     -15.381   9.195  60.776  1.00 32.44     0.180 A 
ATOM     59  HE2 HIS A 172     -13.725  10.086  61.681  1.00  0.00     0.166 HD
ATOM     60  ND1 HIS A 172     -16.661   9.181  61.103  1.00 29.32    -0.354 N 
ATOM     61  HD1 HIS A 172     -17.398   8.703  60.584  1.00  0.00     0.166 HD
ENDBRANCH  54  55
ENDBRANCH  53  54
END_RES HIS A 172
BEGIN_RES THR A  26
REMARK  2 active torsions:
REMARK  status: ('A' for Active; 'I' for Inactive)
REMARK   21  A    between atoms: CA   and  CB  
REMARK   22  A    between atoms: CB   and  OG1 
ROOT
ATOM     62  CA  THR A  26      -8.224  25.031  66.060  1.00 43.98     0.205 C 
ENDROOT
BRANCH  62  63
ATOM     63  CB  THR A  26      -7.184  25.490  65.034  1.00 45.90     0.146 C 
ATOM     64  CG2 THR A  26      -7.853  26.003  63.757  1.00 47.20     0.042 C 
BRANCH  63  65
ATOM     65  OG1 THR A  26      -6.368  26.522  65.599  1.00 50.51    -0.393 OA
ATOM     66  HG1 THR A  26      -6.601  26.654  66.510  1.00  0.00     0.210 HD
ENDBRANCH  63  65
ENDBRANCH  62  63
END_RES THR A  26
ENDMDL
MODEL 9
REMARK VINA RESULT:      -7.1      1.495      3.298
REMARK  14 active torsions:
REMARK  status: ('A' for Active; 'I' for Inactive)
REMARK    1  A    between atoms: C2_2  and  O1_3 
REMARK    2  A    between atoms: O1_3  and  C3_4 
REMARK    3  A    between atoms: C3_4  and  C4_6 
REMARK    4  A    between atoms: C5_7  and  C6_8 
REMARK    5  A    between atoms: C6_8  and  C7_9 
REMARK    6  A    between atoms: C6_8  and  N2_14 
REMARK    7  A    between atoms: C7_9  and  C8_10 
REMARK    8  A    between atoms: C8_10  and  C9_11 
REMARK       I    between atoms: C9_11  and  N1_12 
REMARK       I    between atoms: N2_14  and  C10_15 
REMARK    9  A    between atoms: C10_15  and  C11_17 
REMARK   10  A    between atoms: C11_17  and  C12_18 
REMARK   11  A    between atoms: C11_17  and  N3_25 
REMARK   12  A    between atoms: C12_18  and  C13_19 
REMARK   13  A    between atoms: C23_30  and  N4_31 
REMARK       I    between atoms: N4_31  and  C24_32 
REMARK   14  A    between atoms: C24_32  and  C25_34 
ROOT
HETATM    1  C1  UNL     1     -14.546  14.957  71.653  1.00  0.00     0.034 C 
HETATM    2  C2  UNL     1     -14.060  13.681  72.307  1.00  0.00     0.174 C 
ENDROOT
BRANCH   2   3
HETATM    3  O1  UNL     1     -12.642  13.638  72.282  1.00  0.00    -0.319 OA
BRANCH   3   4
HETATM    4  C3  UNL     1     -11.909  13.457  71.122  1.00  0.00     0.282 C 
HETATM    5  O2  UNL     1     -12.257  12.535  70.351  1.00  0.00    -0.260 OA
BRANCH   4   6
HETATM    6  C4  UNL     1     -10.775  14.327  70.836  1.00  0.00     0.080 C 
HETATM    7  C5  UNL     1     -10.898  15.623  70.844  1.00  0.00     0.004 C 
BRANCH   7   8
HETATM    8  C6  UNL     1      -9.787  16.565  70.562  1.00  0.00     0.108 C 
BRANCH   8   9
HETATM    9  C7  UNL     1     -10.193  17.923  71.104  1.00  0.00     0.038 C 
BRANCH   9  10
HETATM   10  C8  UNL     1      -9.192  18.981  70.724  1.00  0.00     0.105 C 
BRANCH  10  11
HETATM   11  C9  UNL     1      -8.436  19.397  71.920  1.00  0.00     0.215 C 
HETATM   12  N1  UNL     1      -7.253  20.156  71.774  1.00  0.00    -0.370 N 
HETATM   13  H13 UNL     1      -6.735  20.139  70.884  1.00  0.00     0.159 HD
HETATM   14  H14 UNL     1      -6.903  20.728  72.555  1.00  0.00     0.159 HD
HETATM   15  O3  UNL     1      -8.832  19.088  73.058  1.00  0.00    -0.274 OA
ENDBRANCH  10  11
ENDBRANCH   9  10
ENDBRANCH   8   9
BRANCH   8  16
HETATM   16  N2  UNL     1      -9.434  16.629  69.165  1.00  0.00    -0.351 N 
HETATM   17  C10 UNL     1      -8.298  15.976  68.618  1.00  0.00     0.241 C 
HETATM   18  O4  UNL     1      -7.585  15.319  69.407  1.00  0.00    -0.271 OA
HETATM   19  H15 UNL     1     -10.057  17.186  68.548  1.00  0.00     0.163 HD
BRANCH  17  20
HETATM   20  C11 UNL     1      -8.052  16.127  67.156  1.00  0.00     0.188 C 
BRANCH  20  21
HETATM   21  C12 UNL     1      -7.858  17.549  66.771  1.00  0.00     0.074 C 
BRANCH  21  22
HETATM   22  C13 UNL     1      -6.599  18.094  67.271  1.00  0.00    -0.056 A 
HETATM   23  C14 UNL     1      -5.364  17.560  67.000  1.00  0.00     0.007 A 
HETATM   24  C15 UNL     1      -4.203  18.107  67.515  1.00  0.00     0.001 A 
HETATM   25  C16 UNL     1      -4.242  19.218  68.329  1.00  0.00     0.000 A 
HETATM   26  C17 UNL     1      -5.478  19.758  68.605  1.00  0.00     0.001 A 
HETATM   27  C18 UNL     1      -6.638  19.221  68.096  1.00  0.00     0.007 A 
ENDBRANCH  21  22
ENDBRANCH  20  21
BRANCH  20  28
HETATM   28  N3  UNL     1      -8.944  15.352  66.352  1.00  0.00    -0.309 N 
HETATM   29  C19 UNL     1      -9.975  15.939  65.668  1.00  0.00     0.096 A 
HETATM   30  C20 UNL     1     -10.848  15.250  64.877  1.00  0.00     0.026 A 
HETATM   31  C21 UNL     1     -10.719  13.891  64.734  1.00  0.00    -0.028 A 
HETATM   32  C22 UNL     1     -11.628  13.081  63.893  1.00  0.00     0.050 C 
HETATM   33  C23 UNL     1      -9.692  13.263  65.406  1.00  0.00     0.110 A 
HETATM   34  C29 UNL     1      -8.840  14.023  66.194  1.00  0.00     0.275 A 
HETATM   35  O7  UNL     1      -7.912  13.402  66.795  1.00  0.00    -0.265 OA
BRANCH  33  36
HETATM   36  N4  UNL     1      -9.540  11.859  65.271  1.00  0.00    -0.317 N 
HETATM   37  C24 UNL     1     -10.210  10.959  66.134  1.00  0.00     0.277 C 
HETATM   38  O5  UNL     1     -10.952  11.421  67.035  1.00  0.00    -0.266 OA
HETATM   39  H29 UNL     1      -8.926  11.480  64.527  1.00  0.00     0.169 HD
BRANCH  37  40
HETATM   40  C25 UNL     1     -10.039   9.512  65.977  1.00  0.00     0.154 A 
HETATM   41  C26 UNL     1     -10.561   8.537  66.801  1.00  0.00     0.074 A 
HETATM   42  C27 UNL     1     -10.166   7.312  66.302  1.00  0.00     0.077 A 
HETATM   43  C28 UNL     1     -10.464   5.955  66.825  1.00  0.00     0.079 C 
HETATM   44  O6  UNL     1      -9.449   7.577  65.238  1.00  0.00    -0.218 OA
HETATM   45  N5  UNL     1      -9.361   8.850  65.031  1.00  0.00    -0.123 NA
ENDBRANCH  37  40
ENDBRANCH  33  36
ENDBRANCH  20  28
ENDBRANCH  17  20
ENDBRANCH   8  16
ENDBRANCH   7   8
ENDBRANCH   4   6
ENDBRANCH   3   4
ENDBRANCH   2   3
TORSDOF 14
BEGIN_RES HIS A  41
REMARK  2 active torsions:
REMARK  status: ('A' for Active; 'I' for Inactive)
REMARK    1  A    between atoms: CA   and  CB  
REMARK    2  A    between atoms: CB   and  CG  
ROOT
ATOM      1  CA  HIS A  41     -13.820  21.037  73.265  1.00 38.89     0.182 C 
ENDROOT
BRANCH   1   2
ATOM      2  CB  HIS A  41     -13.705  19.545  72.937  1.00 42.38     0.093 C 
BRANCH   2   3
ATOM      3  CG  HIS A  41     -14.085  19.200  71.531  1.00 37.90     0.028 A 
ATOM      4  CD2 HIS A  41     -13.470  19.452  70.352  1.00 37.33     0.114 A 
ATOM      5  NE2 HIS A  41     -14.249  18.903  69.363  1.00 41.88    -0.360 N 
ATOM      6  CE1 HIS A  41     -15.302  18.329  69.917  1.00 41.55     0.180 A 
ATOM      7  HE2 HIS A  41     -14.047  18.935  68.364  1.00  0.00     0.166 HD
ATOM      8  ND1 HIS A  41     -15.226  18.490  71.225  1.00 36.57    -0.354 N 
ATOM      9  HD1 HIS A  41     -15.905  18.144  71.902  1.00  0.00     0.166 HD
ENDBRANCH   2   3
ENDBRANCH   1   2
END_RES HIS A  41
BEGIN_RES CYS A 145
REMARK  1 active torsions:
REMARK  status: ('A' for Active; 'I' for Inactive)
REMARK    3  A    between atoms: CA   and  CB  
ROOT
ATOM     10  CA  CYS A 145     -14.607  19.162  64.101  1.00 29.71     0.186 C 
ENDROOT
BRANCH  10  11
ATOM     11  CB  CYS A 145     -14.100  19.110  65.541  1.00 31.75     0.120 C 
ATOM     12  SG  CYS A 145     -13.697  17.447  66.106  1.00 39.68    -0.095 SA
ENDBRANCH  10  11
END_RES CYS A 145
BEGIN_RES GLN A 189
REMARK  3 active torsions:
REMARK  status: ('A' for Active; 'I' for Inactive)
REMARK    4  A    between atoms: CA   and  CB  
REMARK    5  A    between atoms: CB   and  CG  
REMARK    6  A    between atoms: CG   and  CD  
REMARK       I    between atoms: CD   and  NE2 
ROOT
ATOM     13  CA  GLN A 189     -11.641  10.633  75.105  1.00 38.41     0.177 C 
ENDROOT
BRANCH  13  14
ATOM     14  CB  GLN A 189     -10.259  11.109  74.679  1.00 37.59     0.044 C 
BRANCH  14  15
ATOM     15  CG  GLN A 189     -10.067  11.144  73.172  1.00 45.60     0.105 C 
BRANCH  15  16
ATOM     16  CD  GLN A 189     -10.403   9.824  72.507  1.00 47.27     0.215 C 
ATOM     17  NE2 GLN A 189     -11.369   9.848  71.595  1.00 44.45    -0.370 N 
ATOM     18 2HE2 GLN A 189     -11.868  10.702  71.345  1.00  0.00     0.159 HD
ATOM     19 1HE2 GLN A 189     -11.596   8.960  71.148  1.00  0.00     0.159 HD
ATOM     20  OE1 GLN A 189      -9.801   8.794  72.810  1.00 41.09    -0.274 OA
ENDBRANCH  15  16
ENDBRANCH  14  15
ENDBRANCH  13  14
END_RES GLN A 189
BEGIN_RES ASN A 142
REMARK  2 active torsions:
REMARK  status: ('A' for Active; 'I' for Inactive)
REMARK    7  A    between atoms: CA   and  CB  
REMARK    8  A    between atoms: CB   and  CG  
REMARK       I    between atoms: CG   and  ND2 
ROOT
ATOM     21  CA  ASN A 142      -7.978  15.712  62.559  1.00 43.18     0.185 C 
ENDROOT
BRANCH  21  22
ATOM     22  CB  ASN A 142      -6.512  15.609  62.983  1.00 38.76     0.137 C 
BRANCH  22  23
ATOM     23  CG  ASN A 142      -6.240  14.405  63.865  1.00 50.71     0.217 C 
ATOM     24  ND2 ASN A 142      -5.579  14.636  64.993  1.00 55.08    -0.370 N 
ATOM     25 2HD2 ASN A 142      -5.263  15.567  65.264  1.00  0.00     0.159 HD
ATOM     26 1HD2 ASN A 142      -5.396  13.826  65.586  1.00  0.00     0.159 HD
ATOM     27  OD1 ASN A 142      -6.621  13.282  63.538  1.00 51.97    -0.274 OA
ENDBRANCH  22  23
ENDBRANCH  21  22
END_RES ASN A 142
BEGIN_RES LEU A  27
REMARK  2 active torsions:
REMARK  status: ('A' for Active; 'I' for Inactive)
REMARK    9  A    between atoms: CA   and  CB  
REMARK   10  A    between atoms: CB   and  CG  
ROOT
ATOM     28  CA  LEU A  27     -11.471  23.771  64.549  1.00 37.04     0.177 C 
ENDROOT
BRANCH  28  29
ATOM     29  CB  LEU A  27     -12.225  22.902  65.570  1.00 37.70     0.038 C 
BRANCH  29  30
ATOM     30  CG  LEU A  27     -12.527  23.403  66.982  1.00 36.32    -0.020 C 
ATOM     31  CD1 LEU A  27     -13.834  24.178  67.033  1.00 32.79     0.009 C 
ATOM     32  CD2 LEU A  27     -12.575  22.220  67.937  1.00 31.17     0.009 C 
ENDBRANCH  29  30
ENDBRANCH  28  29
END_RES LEU A  27
BEGIN_RES MET A  49
REMARK  3 active torsions:
REMARK  status: ('A' for Active; 'I' for Inactive)
REMARK   11  A    between atoms: CA   and  CB  
REMARK   12  A    between atoms: CB   and  CG  
REMARK   13  A    between atoms: CG   and  SD  
ROOT
ATOM     33  CA  MET A  49      -9.418  15.600  76.823  1.00 61.58     0.177 C 
ENDROOT
BRANCH  33  34
ATOM     34  CB  MET A  49      -8.930  15.410  75.386  1.00 62.15     0.045 C 
BRANCH  34  35
ATOM     35  CG  MET A  49      -9.700  16.235  74.367  1.00 60.24     0.076 C 
BRANCH  35  36
ATOM     36  SD  MET A  49     -11.167  17.028  75.053  1.00 77.15    -0.173 SA
ATOM     37  CE  MET A  49     -12.415  15.795  74.690  1.00 60.34     0.089 C 
ENDBRANCH  35  36
ENDBRANCH  34  35
ENDBRANCH  33  34
END_RES MET A  49
BEGIN_RES GLU A 166
REMARK  3 active torsions:
REMARK  status: ('A' for Active; 'I' for Inactive)
REMARK   14  A    between atoms: CA   and  CB  
REMARK   15  A    between atoms: CB   and  CG  
REMARK   16  A    between atoms: CG   and  CD  
ROOT
ATOM     38  CA  GLU A 166     -14.746   9.219  66.167  1.00 28.52     0.177 C 
ENDROOT
BRANCH  38  39
ATOM     39  CB  GLU A 166     -13.578   9.064  65.189  1.00 29.90     0.045 C 
BRANCH  39  40
ATOM     40  CG  GLU A 166     -13.576   7.788  64.370  1.00 36.08     0.116 C 
BRANCH  40  41
ATOM     41  CD  GLU A 166     -12.424   7.748  63.383  1.00 45.17     0.172 C 
ATOM     42  OE2 GLU A 166     -11.872   6.650  63.158  1.00 40.54    -0.648 OA
ATOM     43  OE1 GLU A 166     -12.078   8.810  62.824  1.00 50.70    -0.648 OA
ENDBRANCH  40  41
ENDBRANCH  39  40
ENDBRANCH  38  39
END_RES GLU A 166
BEGIN_RES HIS A 163
REMARK  2 active torsions:
REMARK  status: ('A' for Active; 'I' for Inactive)
REMARK   17  A    between atoms: CA   and  CB  
REMARK   18  A    between atoms: CB   and  CG  
ROOT
ATOM     44  CA  HIS A 163     -19.055  16.637  64.100  1.00 27.27     0.182 C 
ENDROOT
BRANCH  44  45
ATOM     45  CB  HIS A 163     -18.129  16.377  62.914  1.00 26.00     0.093 C 
BRANCH  45  46
ATOM     46  CG  HIS A 163     -17.097  15.328  63.182  1.00 26.66     0.028 A 
ATOM     47  ND1 HIS A 163     -15.753  15.617  63.282  1.00 26.97    -0.354 N 
ATOM     48  CE1 HIS A 163     -15.082  14.503  63.515  1.00 30.44     0.180 A 
ATOM     49  HD1 HIS A 163     -15.341  16.545  63.191  1.00  0.00     0.166 HD
ATOM     50  NE2 HIS A 163     -15.942  13.502  63.565  1.00 30.00    -0.360 N 
ATOM     51  CD2 HIS A 163     -17.209  13.990  63.359  1.00 29.24     0.114 A 
ATOM     52  HE2 HIS A 163     -15.703  12.524  63.729  1.00  0.00     0.166 HD
ENDBRANCH  45  46
ENDBRANCH  44  45
END_RES HIS A 163
BEGIN_RES HIS A 172
REMARK  2 active torsions:
REMARK  status: ('A' for Active; 'I' for Inactive)
REMARK   19  A    between atoms: CA   and  CB  
REMARK   20  A    between atoms: CB   and  CG  
ROOT
ATOM     53  CA  HIS A 172     -18.444   9.111  64.049  1.00 29.85     0.182 C 
ENDROOT
BRANCH  53  54
ATOM     54  CB  HIS A 172     -18.188  10.085  62.898  1.00 26.76     0.093 C 
BRANCH  54  55
ATOM     55  CG  HIS A 172     -16.869   9.877  62.221  1.00 28.76     0.028 A 
ATOM     56  CD2 HIS A 172     -15.617  10.251  62.575  1.00 29.36     0.114 A 
ATOM     57  NE2 HIS A 172     -14.766   9.793  61.599  1.00 33.77    -0.360 N 
ATOM     58  CE1 HIS A 172     -15.470   9.156  60.680  1.00 32.44     0.180 A 
ATOM     59  HE2 HIS A 172     -13.755   9.924  61.586  1.00  0.00     0.166 HD
ATOM     60  ND1 HIS A 172     -16.743   9.188  61.033  1.00 29.32    -0.354 N 
ATOM     61  HD1 HIS A 172     -17.512   8.770  60.510  1.00  0.00     0.166 HD
ENDBRANCH  54  55
ENDBRANCH  53  54
END_RES HIS A 172
BEGIN_RES THR A  26
REMARK  2 active torsions:
REMARK  status: ('A' for Active; 'I' for Inactive)
REMARK   21  A    between atoms: CA   and  CB  
REMARK   22  A    between atoms: CB   and  OG1 
ROOT
ATOM     62  CA  THR A  26      -8.224  25.031  66.060  1.00 43.98     0.205 C 
ENDROOT
BRANCH  62  63
ATOM     63  CB  THR A  26      -7.184  25.490  65.034  1.00 45.90     0.146 C 
ATOM     64  CG2 THR A  26      -7.852  25.993  63.753  1.00 47.20     0.042 C 
BRANCH  63  65
ATOM     65  OG1 THR A  26      -6.374  26.528  65.595  1.00 50.51    -0.393 OA
ATOM     66  HG1 THR A  26      -5.517  26.527  65.184  1.00  0.00     0.210 HD
ENDBRANCH  63  65
ENDBRANCH  62  63
END_RES THR A  26
ENDMDL
