MODEL 1
REMARK VINA RESULT:      -9.4      0.000      0.000
REMARK  9 active torsions:
REMARK  status: ('A' for Active; 'I' for Inactive)
REMARK    1  A    between atoms: O1_2  and  C2_3 
REMARK    2  A    between atoms: N1_10  and  C9_11 
REMARK    3  A    between atoms: C11_15  and  O3_16 
REMARK    4  A    between atoms: O3_16  and  C12_17 
REMARK    5  A    between atoms: C12_17  and  N3_19 
REMARK    6  A    between atoms: N3_19  and  C13_20 
REMARK    7  A    between atoms: C13_20  and  C14_21 
REMARK    8  A    between atoms: C20_28  and  C21_29 
REMARK    9  A    between atoms: C21_29  and  C22_30 
ROOT
HETATM    1  C1  UNL     1     -12.618   9.387  71.227  1.00  0.00     0.210 C 
HETATM    2  O1  UNL     1     -13.341  10.503  71.654  1.00  0.00    -0.356 OA
ENDROOT
BRANCH   2   3
HETATM    3  C2  UNL     1     -12.887  11.798  71.458  1.00  0.00     0.069 A 
HETATM    4  C3  UNL     1     -12.052  12.094  70.416  1.00  0.00     0.039 A 
HETATM    5  C4  UNL     1     -11.598  13.381  70.216  1.00  0.00     0.034 A 
HETATM    6  C5  UNL     1     -11.956  14.432  71.048  1.00  0.00     0.052 A 
HETATM    7  C6  UNL     1     -12.809  14.082  72.094  1.00  0.00    -0.005 A 
HETATM    8  N1  UNL     1     -11.658  15.731  71.041  1.00  0.00    -0.286 N 
HETATM    9  C7  UNL     1     -13.044  15.246  72.766  1.00  0.00     0.031 A 
HETATM   10  C28 UNL     1     -13.277  12.796  72.314  1.00  0.00     0.050 A 
HETATM   11  C8  UNL     1     -12.353  16.226  72.131  1.00  0.00     0.102 A 
BRANCH   8  12
HETATM   12  C9  UNL     1     -10.890  16.532  70.187  1.00  0.00     0.261 C 
HETATM   13  O2  UNL     1     -10.845  17.816  70.676  1.00  0.00    -0.151 OA
HETATM   14  N2  UNL     1     -10.162  16.505  69.033  1.00  0.00    -0.337 N 
HETATM   15  C10 UNL     1      -9.657  15.675  67.977  1.00  0.00     0.159 C 
HETATM   16  C20 UNL     1      -9.657  17.859  68.494  1.00  0.00     0.094 C 
HETATM   17  C11 UNL     1     -10.312  16.375  66.801  1.00  0.00     0.153 C 
HETATM   18  C19 UNL     1      -9.712  17.753  67.014  1.00  0.00     0.060 C 
BRANCH  17  19
HETATM   19  O3  UNL     1     -10.147  15.805  65.583  1.00  0.00    -0.297 OA
BRANCH  19  20
HETATM   20  C12 UNL     1     -11.119  15.518  64.640  1.00  0.00     0.361 C 
HETATM   21  O4  UNL     1     -11.526  16.517  64.003  1.00  0.00    -0.238 OA
BRANCH  20  22
HETATM   22  N3  UNL     1     -11.646  14.258  64.369  1.00  0.00    -0.331 N 
HETATM   23  H11 UNL     1     -11.503  13.911  63.369  1.00  0.00     0.165 HD
BRANCH  22  24
HETATM   24  C13 UNL     1     -12.336  13.392  65.244  1.00  0.00     0.184 C 
BRANCH  24  25
HETATM   25  C14 UNL     1     -11.619  12.189  65.700  1.00  0.00     0.051 A 
HETATM   26  C15 UNL     1     -10.822  11.580  64.736  1.00  0.00     0.029 A 
HETATM   27  C16 UNL     1     -10.096  10.461  65.001  1.00  0.00     0.003 A 
HETATM   28  C17 UNL     1     -10.170   9.936  66.271  1.00  0.00     0.019 A 
HETATM   29  C18 UNL     1     -10.966  10.559  67.206  1.00  0.00     0.117 A 
HETATM   30  N4  UNL     1     -11.667  11.659  66.906  1.00  0.00    -0.264 NA
ENDBRANCH  24  25
ENDBRANCH  22  24
ENDBRANCH  20  22
ENDBRANCH  19  20
ENDBRANCH  17  19
BRANCH  16  31
HETATM   31  C21 UNL     1      -8.321  18.170  69.024  1.00  0.00     0.064 C 
BRANCH  31  32
HETATM   32  C22 UNL     1      -7.471  18.857  68.045  1.00  0.00    -0.056 A 
HETATM   33  C23 UNL     1      -7.576  20.193  67.811  1.00  0.00     0.007 A 
HETATM   34  C24 UNL     1      -6.748  20.824  66.897  1.00  0.00     0.001 A 
HETATM   35  C25 UNL     1      -5.807  20.075  66.219  1.00  0.00     0.000 A 
HETATM   36  C26 UNL     1      -5.695  18.732  66.448  1.00  0.00     0.001 A 
HETATM   37  C27 UNL     1      -6.533  18.109  67.368  1.00  0.00     0.007 A 
ENDBRANCH  31  32
ENDBRANCH  16  31
ENDBRANCH   8  12
ENDBRANCH   2   3
TORSDOF 7
BEGIN_RES HIS A  41
REMARK  2 active torsions:
REMARK  status: ('A' for Active; 'I' for Inactive)
REMARK    1  A    between atoms: CA   and  CB  
REMARK    2  A    between atoms: CB   and  CG  
ROOT
ATOM      1  CA  HIS A  41     -13.820  21.037  73.265  1.00 38.89     0.182 C 
ENDROOT
BRANCH   1   2
ATOM      2  CB  HIS A  41     -13.705  19.545  72.937  1.00 42.38     0.093 C 
BRANCH   2   3
ATOM      3  CG  HIS A  41     -14.036  19.206  71.518  1.00 37.90     0.028 A 
ATOM      4  CD2 HIS A  41     -15.097  18.561  70.977  1.00 37.33     0.114 A 
ATOM      5  NE2 HIS A  41     -14.901  18.528  69.618  1.00 41.88    -0.360 N 
ATOM      6  CE1 HIS A  41     -13.763  19.137  69.334  1.00 41.55     0.180 A 
ATOM      7  HE2 HIS A  41     -15.532  18.103  68.939  1.00  0.00     0.166 HD
ATOM      8  ND1 HIS A  41     -13.222  19.558  70.462  1.00 36.57    -0.354 N 
ATOM      9  HD1 HIS A  41     -12.340  20.064  70.541  1.00  0.00     0.166 HD
ENDBRANCH   2   3
ENDBRANCH   1   2
END_RES HIS A  41
BEGIN_RES CYS A 145
REMARK  1 active torsions:
REMARK  status: ('A' for Active; 'I' for Inactive)
REMARK    3  A    between atoms: CA   and  CB  
ROOT
ATOM     10  CA  CYS A 145     -14.607  19.162  64.101  1.00 29.71     0.186 C 
ENDROOT
BRANCH  10  11
ATOM     11  CB  CYS A 145     -14.100  19.110  65.541  1.00 31.75     0.120 C 
ATOM     12  SG  CYS A 145     -13.949  17.437  66.195  1.00 39.68    -0.095 SA
ENDBRANCH  10  11
END_RES CYS A 145
BEGIN_RES GLN A 189
REMARK  3 active torsions:
REMARK  status: ('A' for Active; 'I' for Inactive)
REMARK    4  A    between atoms: CA   and  CB  
REMARK    5  A    between atoms: CB   and  CG  
REMARK    6  A    between atoms: CG   and  CD  
REMARK       I    between atoms: CD   and  NE2 
ROOT
ATOM     13  CA  GLN A 189     -11.641  10.633  75.105  1.00 38.41     0.177 C 
ENDROOT
BRANCH  13  14
ATOM     14  CB  GLN A 189     -10.259  11.109  74.679  1.00 37.59     0.044 C 
BRANCH  14  15
ATOM     15  CG  GLN A 189      -9.917  10.767  73.238  1.00 45.60     0.105 C 
BRANCH  15  16
ATOM     16  CD  GLN A 189      -9.125  11.860  72.549  1.00 47.27     0.215 C 
ATOM     17  NE2 GLN A 189      -8.259  11.469  71.620  1.00 44.45    -0.370 N 
ATOM     18 2HE2 GLN A 189      -8.123  10.489  71.373  1.00  0.00     0.159 HD
ATOM     19 1HE2 GLN A 189      -7.725  12.204  71.156  1.00  0.00     0.159 HD
ATOM     20  OE1 GLN A 189      -9.289  13.043  72.848  1.00 41.09    -0.274 OA
ENDBRANCH  15  16
ENDBRANCH  14  15
ENDBRANCH  13  14
END_RES GLN A 189
BEGIN_RES ASN A 142
REMARK  2 active torsions:
REMARK  status: ('A' for Active; 'I' for Inactive)
REMARK    7  A    between atoms: CA   and  CB  
REMARK    8  A    between atoms: CB   and  CG  
REMARK       I    between atoms: CG   and  ND2 
ROOT
ATOM     21  CA  ASN A 142      -7.978  15.712  62.559  1.00 43.18     0.185 C 
ENDROOT
BRANCH  21  22
ATOM     22  CB  ASN A 142      -6.512  15.609  62.983  1.00 38.76     0.137 C 
BRANCH  22  23
ATOM     23  CG  ASN A 142      -6.348  15.355  64.470  1.00 50.71     0.217 C 
ATOM     24  ND2 ASN A 142      -7.430  14.944  65.122  1.00 55.08    -0.370 N 
ATOM     25 2HD2 ASN A 142      -8.329  14.803  64.660  1.00  0.00     0.159 HD
ATOM     26 1HD2 ASN A 142      -7.320  14.773  66.122  1.00  0.00     0.159 HD
ATOM     27  OD1 ASN A 142      -5.264  15.525  65.026  1.00 51.97    -0.274 OA
ENDBRANCH  22  23
ENDBRANCH  21  22
END_RES ASN A 142
BEGIN_RES LEU A  27
REMARK  2 active torsions:
REMARK  status: ('A' for Active; 'I' for Inactive)
REMARK    9  A    between atoms: CA   and  CB  
REMARK   10  A    between atoms: CB   and  CG  
ROOT
ATOM     28  CA  LEU A  27     -11.471  23.771  64.549  1.00 37.04     0.177 C 
ENDROOT
BRANCH  28  29
ATOM     29  CB  LEU A  27     -12.225  22.902  65.570  1.00 37.70     0.038 C 
BRANCH  29  30
ATOM     30  CG  LEU A  27     -12.362  23.321  67.034  1.00 36.32    -0.020 C 
ATOM     31  CD1 LEU A  27     -13.815  23.551  67.416  1.00 32.79     0.009 C 
ATOM     32  CD2 LEU A  27     -11.743  22.252  67.923  1.00 31.17     0.009 C 
ENDBRANCH  29  30
ENDBRANCH  28  29
END_RES LEU A  27
BEGIN_RES MET A  49
REMARK  3 active torsions:
REMARK  status: ('A' for Active; 'I' for Inactive)
REMARK   11  A    between atoms: CA   and  CB  
REMARK   12  A    between atoms: CB   and  CG  
REMARK   13  A    between atoms: CG   and  SD  
ROOT
ATOM     33  CA  MET A  49      -9.418  15.600  76.823  1.00 61.58     0.177 C 
ENDROOT
BRANCH  33  34
ATOM     34  CB  MET A  49      -8.930  15.410  75.386  1.00 62.15     0.045 C 
BRANCH  34  35
ATOM     35  CG  MET A  49      -9.482  16.441  74.414  1.00 60.24     0.076 C 
BRANCH  35  36
ATOM     36  SD  MET A  49      -8.314  16.895  73.117  1.00 77.15    -0.173 SA
ATOM     37  CE  MET A  49      -8.574  18.666  73.037  1.00 60.34     0.089 C 
ENDBRANCH  35  36
ENDBRANCH  34  35
ENDBRANCH  33  34
END_RES MET A  49
BEGIN_RES GLU A 166
REMARK  3 active torsions:
REMARK  status: ('A' for Active; 'I' for Inactive)
REMARK   14  A    between atoms: CA   and  CB  
REMARK   15  A    between atoms: CB   and  CG  
REMARK   16  A    between atoms: CG   and  CD  
ROOT
ATOM     38  CA  GLU A 166     -14.746   9.219  66.167  1.00 28.52     0.177 C 
ENDROOT
BRANCH  38  39
ATOM     39  CB  GLU A 166     -13.578   9.064  65.189  1.00 29.90     0.045 C 
BRANCH  39  40
ATOM     40  CG  GLU A 166     -13.619   7.827  64.312  1.00 36.08     0.116 C 
BRANCH  40  41
ATOM     41  CD  GLU A 166     -12.373   7.695  63.457  1.00 45.17     0.172 C 
ATOM     42  OE2 GLU A 166     -11.559   6.787  63.728  1.00 40.54    -0.648 OA
ATOM     43  OE1 GLU A 166     -12.211   8.492  62.507  1.00 50.70    -0.648 OA
ENDBRANCH  40  41
ENDBRANCH  39  40
ENDBRANCH  38  39
END_RES GLU A 166
BEGIN_RES HIS A 163
REMARK  2 active torsions:
REMARK  status: ('A' for Active; 'I' for Inactive)
REMARK   17  A    between atoms: CA   and  CB  
REMARK   18  A    between atoms: CB   and  CG  
ROOT
ATOM     44  CA  HIS A 163     -19.055  16.637  64.100  1.00 27.27     0.182 C 
ENDROOT
BRANCH  44  45
ATOM     45  CB  HIS A 163     -18.129  16.377  62.914  1.00 26.00     0.093 C 
BRANCH  45  46
ATOM     46  CG  HIS A 163     -17.112  15.311  63.174  1.00 26.66     0.028 A 
ATOM     47  ND1 HIS A 163     -15.761  15.576  63.244  1.00 26.97    -0.354 N 
ATOM     48  CE1 HIS A 163     -15.106  14.452  63.477  1.00 30.44     0.180 A 
ATOM     49  HD1 HIS A 163     -15.334  16.495  63.133  1.00  0.00     0.166 HD
ATOM     50  NE2 HIS A 163     -15.984  13.468  63.556  1.00 30.00    -0.360 N 
ATOM     51  CD2 HIS A 163     -17.246  13.978  63.369  1.00 29.24     0.114 A 
ATOM     52  HE2 HIS A 163     -15.761  12.487  63.727  1.00  0.00     0.166 HD
ENDBRANCH  45  46
ENDBRANCH  44  45
END_RES HIS A 163
BEGIN_RES HIS A 172
REMARK  2 active torsions:
REMARK  status: ('A' for Active; 'I' for Inactive)
REMARK   19  A    between atoms: CA   and  CB  
REMARK   20  A    between atoms: CB   and  CG  
ROOT
ATOM     53  CA  HIS A 172     -18.444   9.111  64.049  1.00 29.85     0.182 C 
ENDROOT
BRANCH  53  54
ATOM     54  CB  HIS A 172     -18.188  10.085  62.898  1.00 26.76     0.093 C 
BRANCH  54  55
ATOM     55  CG  HIS A 172     -16.883   9.857  62.202  1.00 28.76     0.028 A 
ATOM     56  CD2 HIS A 172     -15.621  10.215  62.536  1.00 29.36     0.114 A 
ATOM     57  NE2 HIS A 172     -14.790   9.744  61.548  1.00 33.77    -0.360 N 
ATOM     58  CE1 HIS A 172     -15.517   9.114  60.641  1.00 32.44     0.180 A 
ATOM     59  HE2 HIS A 172     -13.778   9.861  61.519  1.00  0.00     0.166 HD
ATOM     60  ND1 HIS A 172     -16.784   9.164  61.014  1.00 29.32    -0.354 N 
ATOM     61  HD1 HIS A 172     -17.566   8.755  60.503  1.00  0.00     0.166 HD
ENDBRANCH  54  55
ENDBRANCH  53  54
END_RES HIS A 172
BEGIN_RES THR A  26
REMARK  2 active torsions:
REMARK  status: ('A' for Active; 'I' for Inactive)
REMARK   21  A    between atoms: CA   and  CB  
REMARK   22  A    between atoms: CB   and  OG1 
ROOT
ATOM     62  CA  THR A  26      -8.224  25.031  66.060  1.00 43.98     0.205 C 
ENDROOT
BRANCH  62  63
ATOM     63  CB  THR A  26      -7.184  25.490  65.034  1.00 45.90     0.146 C 
ATOM     64  CG2 THR A  26      -7.853  26.014  63.762  1.00 47.20     0.042 C 
BRANCH  63  65
ATOM     65  OG1 THR A  26      -6.360  26.514  65.603  1.00 50.51    -0.393 OA
ATOM     66  HG1 THR A  26      -6.589  27.357  65.229  1.00  0.00     0.210 HD
ENDBRANCH  63  65
ENDBRANCH  62  63
END_RES THR A  26
ENDMDL
MODEL 2
REMARK VINA RESULT:      -9.4      1.758      2.654
REMARK  9 active torsions:
REMARK  status: ('A' for Active; 'I' for Inactive)
REMARK    1  A    between atoms: O1_2  and  C2_3 
REMARK    2  A    between atoms: N1_10  and  C9_11 
REMARK    3  A    between atoms: C11_15  and  O3_16 
REMARK    4  A    between atoms: O3_16  and  C12_17 
REMARK    5  A    between atoms: C12_17  and  N3_19 
REMARK    6  A    between atoms: N3_19  and  C13_20 
REMARK    7  A    between atoms: C13_20  and  C14_21 
REMARK    8  A    between atoms: C20_28  and  C21_29 
REMARK    9  A    between atoms: C21_29  and  C22_30 
ROOT
HETATM    1  C1  UNL     1     -12.156   7.083  71.071  1.00  0.00     0.210 C 
HETATM    2  O1  UNL     1     -12.735   8.191  71.696  1.00  0.00    -0.356 OA
ENDROOT
BRANCH   2   3
HETATM    3  C2  UNL     1     -12.554   9.483  71.228  1.00  0.00     0.069 A 
HETATM    4  C3  UNL     1     -11.904   9.712  70.047  1.00  0.00     0.039 A 
HETATM    5  C4  UNL     1     -11.721  10.996  69.575  1.00  0.00     0.034 A 
HETATM    6  C5  UNL     1     -12.179  12.110  70.263  1.00  0.00     0.052 A 
HETATM    7  C6  UNL     1     -12.836  11.827  71.461  1.00  0.00    -0.005 A 
HETATM    8  N1  UNL     1     -12.130  13.416  70.001  1.00  0.00    -0.286 N 
HETATM    9  C7  UNL     1     -13.211  13.041  71.956  1.00  0.00     0.031 A 
HETATM   10  C28 UNL     1     -13.030  10.545  71.952  1.00  0.00     0.050 A 
HETATM   11  C8  UNL     1     -12.786  13.985  71.078  1.00  0.00     0.102 A 
BRANCH   8  12
HETATM   12  C9  UNL     1     -11.621  14.158  68.929  1.00  0.00     0.261 C 
HETATM   13  O2  UNL     1     -11.837  15.498  69.150  1.00  0.00    -0.151 OA
HETATM   14  N2  UNL     1     -10.982  14.038  67.729  1.00  0.00    -0.337 N 
HETATM   15  C10 UNL     1     -10.371  13.125  66.805  1.00  0.00     0.159 C 
HETATM   16  C20 UNL     1     -10.832  15.319  66.885  1.00  0.00     0.094 C 
HETATM   17  C11 UNL     1     -11.241  13.406  65.594  1.00  0.00     0.153 C 
HETATM   18  C19 UNL     1     -10.956  14.891  65.469  1.00  0.00     0.060 C 
BRANCH  17  19
HETATM   19  O3  UNL     1     -11.030  12.636  64.500  1.00  0.00    -0.297 OA
BRANCH  19  20
HETATM   20  C12 UNL     1      -9.937  11.832  64.224  1.00  0.00     0.361 C 
HETATM   21  O4  UNL     1      -8.954  12.447  63.748  1.00  0.00    -0.238 OA
BRANCH  20  22
HETATM   22  N3  UNL     1      -9.864  10.457  64.427  1.00  0.00    -0.331 N 
HETATM   23  H11 UNL     1     -10.234   9.858  63.623  1.00  0.00     0.165 HD
BRANCH  22  24
HETATM   24  C13 UNL     1      -9.366   9.763  65.550  1.00  0.00     0.184 C 
BRANCH  24  25
HETATM   25  C14 UNL     1      -9.746   8.347  65.686  1.00  0.00     0.051 A 
HETATM   26  C15 UNL     1     -10.514   8.051  66.807  1.00  0.00     0.029 A 
HETATM   27  C16 UNL     1     -10.947   6.790  67.075  1.00  0.00     0.003 A 
HETATM   28  C17 UNL     1     -10.597   5.793  66.191  1.00  0.00     0.019 A 
HETATM   29  C18 UNL     1      -9.835   6.113  65.089  1.00  0.00     0.117 A 
HETATM   30  N4  UNL     1      -9.429   7.368  64.862  1.00  0.00    -0.264 NA
ENDBRANCH  24  25
ENDBRANCH  22  24
ENDBRANCH  20  22
ENDBRANCH  19  20
ENDBRANCH  17  19
BRANCH  16  31
HETATM   31  C21 UNL     1      -9.570  16.008  67.195  1.00  0.00     0.064 C 
BRANCH  31  32
HETATM   32  C22 UNL     1      -9.742  17.456  67.359  1.00  0.00    -0.056 A 
HETATM   33  C23 UNL     1      -9.572  18.070  68.561  1.00  0.00     0.007 A 
HETATM   34  C24 UNL     1      -9.719  19.442  68.687  1.00  0.00     0.001 A 
HETATM   35  C25 UNL     1     -10.045  20.185  67.571  1.00  0.00     0.000 A 
HETATM   36  C26 UNL     1     -10.217  19.576  66.359  1.00  0.00     0.001 A 
HETATM   37  C27 UNL     1     -10.067  18.197  66.245  1.00  0.00     0.007 A 
ENDBRANCH  31  32
ENDBRANCH  16  31
ENDBRANCH   8  12
ENDBRANCH   2   3
TORSDOF 7
BEGIN_RES HIS A  41
REMARK  2 active torsions:
REMARK  status: ('A' for Active; 'I' for Inactive)
REMARK    1  A    between atoms: CA   and  CB  
REMARK    2  A    between atoms: CB   and  CG  
ROOT
ATOM      1  CA  HIS A  41     -13.820  21.037  73.265  1.00 38.89     0.182 C 
ENDROOT
BRANCH   1   2
ATOM      2  CB  HIS A  41     -13.705  19.545  72.937  1.00 42.38     0.093 C 
BRANCH   2   3
ATOM      3  CG  HIS A  41     -13.916  19.221  71.491  1.00 37.90     0.028 A 
ATOM      4  CD2 HIS A  41     -14.979  18.695  70.839  1.00 37.33     0.114 A 
ATOM      5  NE2 HIS A  41     -14.640  18.614  69.511  1.00 41.88    -0.360 N 
ATOM      6  CE1 HIS A  41     -13.414  19.080  69.352  1.00 41.55     0.180 A 
ATOM      7  HE2 HIS A  41     -15.238  18.253  68.768  1.00  0.00     0.166 HD
ATOM      8  ND1 HIS A  41     -12.955  19.456  70.531  1.00 36.57    -0.354 N 
ATOM      9  HD1 HIS A  41     -12.033  19.857  70.705  1.00  0.00     0.166 HD
ENDBRANCH   2   3
ENDBRANCH   1   2
END_RES HIS A  41
BEGIN_RES CYS A 145
REMARK  1 active torsions:
REMARK  status: ('A' for Active; 'I' for Inactive)
REMARK    3  A    between atoms: CA   and  CB  
ROOT
ATOM     10  CA  CYS A 145     -14.607  19.162  64.101  1.00 29.71     0.186 C 
ENDROOT
BRANCH  10  11
ATOM     11  CB  CYS A 145     -14.100  19.110  65.541  1.00 31.75     0.120 C 
ATOM     12  SG  CYS A 145     -13.791  17.438  66.139  1.00 39.68    -0.095 SA
ENDBRANCH  10  11
END_RES CYS A 145
BEGIN_RES GLN A 189
REMARK  3 active torsions:
REMARK  status: ('A' for Active; 'I' for Inactive)
REMARK    4  A    between atoms: CA   and  CB  
REMARK    5  A    between atoms: CB   and  CG  
REMARK    6  A    between atoms: CG   and  CD  
REMARK       I    between atoms: CD   and  NE2 
ROOT
ATOM     13  CA  GLN A 189     -11.641  10.633  75.105  1.00 38.41     0.177 C 
ENDROOT
BRANCH  13  14
ATOM     14  CB  GLN A 189     -10.259  11.109  74.679  1.00 37.59     0.044 C 
BRANCH  14  15
ATOM     15  CG  GLN A 189      -9.822  10.570  73.327  1.00 45.60     0.105 C 
BRANCH  15  16
ATOM     16  CD  GLN A 189      -9.313  11.655  72.400  1.00 47.27     0.215 C 
ATOM     17  NE2 GLN A 189      -9.594  12.908  72.743  1.00 44.45    -0.370 N 
ATOM     18 2HE2 GLN A 189     -10.123  13.143  73.582  1.00  0.00     0.159 HD
ATOM     19 1HE2 GLN A 189      -9.252  13.638  72.119  1.00  0.00     0.159 HD
ATOM     20  OE1 GLN A 189      -8.674  11.371  71.386  1.00 41.09    -0.274 OA
ENDBRANCH  15  16
ENDBRANCH  14  15
ENDBRANCH  13  14
END_RES GLN A 189
BEGIN_RES ASN A 142
REMARK  2 active torsions:
REMARK  status: ('A' for Active; 'I' for Inactive)
REMARK    7  A    between atoms: CA   and  CB  
REMARK    8  A    between atoms: CB   and  CG  
REMARK       I    between atoms: CG   and  ND2 
ROOT
ATOM     21  CA  ASN A 142      -7.978  15.712  62.559  1.00 43.18     0.185 C 
ENDROOT
BRANCH  21  22
ATOM     22  CB  ASN A 142      -6.512  15.609  62.983  1.00 38.76     0.137 C 
BRANCH  22  23
ATOM     23  CG  ASN A 142      -6.348  15.378  64.473  1.00 50.71     0.217 C 
ATOM     24  ND2 ASN A 142      -7.044  14.375  64.996  1.00 55.08    -0.370 N 
ATOM     25 2HD2 ASN A 142      -7.660  13.784  64.437  1.00  0.00     0.159 HD
ATOM     26 1HD2 ASN A 142      -6.934  14.219  65.998  1.00  0.00     0.159 HD
ATOM     27  OD1 ASN A 142      -5.605  16.090  65.147  1.00 51.97    -0.274 OA
ENDBRANCH  22  23
ENDBRANCH  21  22
END_RES ASN A 142
BEGIN_RES LEU A  27
REMARK  2 active torsions:
REMARK  status: ('A' for Active; 'I' for Inactive)
REMARK    9  A    between atoms: CA   and  CB  
REMARK   10  A    between atoms: CB   and  CG  
ROOT
ATOM     28  CA  LEU A  27     -11.471  23.771  64.549  1.00 37.04     0.177 C 
ENDROOT
BRANCH  28  29
ATOM     29  CB  LEU A  27     -12.225  22.902  65.570  1.00 37.70     0.038 C 
BRANCH  29  30
ATOM     30  CG  LEU A  27     -12.589  23.429  66.958  1.00 36.32    -0.020 C 
ATOM     31  CD1 LEU A  27     -13.689  24.475  66.888  1.00 32.79     0.009 C 
ATOM     32  CD2 LEU A  27     -13.019  22.266  67.841  1.00 31.17     0.009 C 
ENDBRANCH  29  30
ENDBRANCH  28  29
END_RES LEU A  27
BEGIN_RES MET A  49
REMARK  3 active torsions:
REMARK  status: ('A' for Active; 'I' for Inactive)
REMARK   11  A    between atoms: CA   and  CB  
REMARK   12  A    between atoms: CB   and  CG  
REMARK   13  A    between atoms: CG   and  SD  
ROOT
ATOM     33  CA  MET A  49      -9.418  15.600  76.823  1.00 61.58     0.177 C 
ENDROOT
BRANCH  33  34
ATOM     34  CB  MET A  49      -8.930  15.410  75.386  1.00 62.15     0.045 C 
BRANCH  34  35
ATOM     35  CG  MET A  49      -9.619  16.321  74.383  1.00 60.24     0.076 C 
BRANCH  35  36
ATOM     36  SD  MET A  49     -11.200  16.962  74.970  1.00 77.15    -0.173 SA
ATOM     37  CE  MET A  49     -12.307  15.654  74.445  1.00 60.34     0.089 C 
ENDBRANCH  35  36
ENDBRANCH  34  35
ENDBRANCH  33  34
END_RES MET A  49
BEGIN_RES GLU A 166
REMARK  3 active torsions:
REMARK  status: ('A' for Active; 'I' for Inactive)
REMARK   14  A    between atoms: CA   and  CB  
REMARK   15  A    between atoms: CB   and  CG  
REMARK   16  A    between atoms: CG   and  CD  
ROOT
ATOM     38  CA  GLU A 166     -14.746   9.219  66.167  1.00 28.52     0.177 C 
ENDROOT
BRANCH  38  39
ATOM     39  CB  GLU A 166     -13.578   9.064  65.189  1.00 29.90     0.045 C 
BRANCH  39  40
ATOM     40  CG  GLU A 166     -13.561   7.775  64.390  1.00 36.08     0.116 C 
BRANCH  40  41
ATOM     41  CD  GLU A 166     -12.587   7.839  63.229  1.00 45.17     0.172 C 
ATOM     42  OE2 GLU A 166     -12.059   8.938  62.955  1.00 40.54    -0.648 OA
ATOM     43  OE1 GLU A 166     -12.339   6.790  62.596  1.00 50.70    -0.648 OA
ENDBRANCH  40  41
ENDBRANCH  39  40
ENDBRANCH  38  39
END_RES GLU A 166
BEGIN_RES HIS A 163
REMARK  2 active torsions:
REMARK  status: ('A' for Active; 'I' for Inactive)
REMARK   17  A    between atoms: CA   and  CB  
REMARK   18  A    between atoms: CB   and  CG  
ROOT
ATOM     44  CA  HIS A 163     -19.055  16.637  64.100  1.00 27.27     0.182 C 
ENDROOT
BRANCH  44  45
ATOM     45  CB  HIS A 163     -18.129  16.377  62.914  1.00 26.00     0.093 C 
BRANCH  45  46
ATOM     46  CG  HIS A 163     -17.098  15.327  63.182  1.00 26.66     0.028 A 
ATOM     47  ND1 HIS A 163     -15.754  15.614  63.280  1.00 26.97    -0.354 N 
ATOM     48  CE1 HIS A 163     -15.083  14.499  63.513  1.00 30.44     0.180 A 
ATOM     49  HD1 HIS A 163     -15.341  16.542  63.187  1.00  0.00     0.166 HD
ATOM     50  NE2 HIS A 163     -15.945  13.499  63.564  1.00 30.00    -0.360 N 
ATOM     51  CD2 HIS A 163     -17.212  13.989  63.360  1.00 29.24     0.114 A 
ATOM     52  HE2 HIS A 163     -15.707  12.521  63.729  1.00  0.00     0.166 HD
ENDBRANCH  45  46
ENDBRANCH  44  45
END_RES HIS A 163
BEGIN_RES HIS A 172
REMARK  2 active torsions:
REMARK  status: ('A' for Active; 'I' for Inactive)
REMARK   19  A    between atoms: CA   and  CB  
REMARK   20  A    between atoms: CB   and  CG  
ROOT
ATOM     53  CA  HIS A 172     -18.444   9.111  64.049  1.00 29.85     0.182 C 
ENDROOT
BRANCH  53  54
ATOM     54  CB  HIS A 172     -18.188  10.085  62.898  1.00 26.76     0.093 C 
BRANCH  54  55
ATOM     55  CG  HIS A 172     -16.871   9.874  62.219  1.00 28.76     0.028 A 
ATOM     56  CD2 HIS A 172     -15.618  10.247  62.570  1.00 29.36     0.114 A 
ATOM     57  NE2 HIS A 172     -14.769   9.787  61.592  1.00 33.77    -0.360 N 
ATOM     58  CE1 HIS A 172     -15.476   9.150  60.675  1.00 32.44     0.180 A 
ATOM     59  HE2 HIS A 172     -13.758   9.917  61.577  1.00  0.00     0.166 HD
ATOM     60  ND1 HIS A 172     -16.748   9.184  61.031  1.00 29.32    -0.354 N 
ATOM     61  HD1 HIS A 172     -17.518   8.767  60.510  1.00  0.00     0.166 HD
ENDBRANCH  54  55
ENDBRANCH  53  54
END_RES HIS A 172
BEGIN_RES THR A  26
REMARK  2 active torsions:
REMARK  status: ('A' for Active; 'I' for Inactive)
REMARK   21  A    between atoms: CA   and  CB  
REMARK   22  A    between atoms: CB   and  OG1 
ROOT
ATOM     62  CA  THR A  26      -8.224  25.031  66.060  1.00 43.98     0.205 C 
ENDROOT
BRANCH  62  63
ATOM     63  CB  THR A  26      -7.184  25.490  65.034  1.00 45.90     0.146 C 
ATOM     64  CG2 THR A  26      -7.852  25.998  63.755  1.00 47.20     0.042 C 
BRANCH  63  65
ATOM     65  OG1 THR A  26      -6.371  26.525  65.597  1.00 50.51    -0.393 OA
ATOM     66  HG1 THR A  26      -6.033  26.247  66.441  1.00  0.00     0.210 HD
ENDBRANCH  63  65
ENDBRANCH  62  63
END_RES THR A  26
ENDMDL
MODEL 3
REMARK VINA RESULT:      -9.3      1.965      5.564
REMARK  9 active torsions:
REMARK  status: ('A' for Active; 'I' for Inactive)
REMARK    1  A    between atoms: O1_2  and  C2_3 
REMARK    2  A    between atoms: N1_10  and  C9_11 
REMARK    3  A    between atoms: C11_15  and  O3_16 
REMARK    4  A    between atoms: O3_16  and  C12_17 
REMARK    5  A    between atoms: C12_17  and  N3_19 
REMARK    6  A    between atoms: N3_19  and  C13_20 
REMARK    7  A    between atoms: C13_20  and  C14_21 
REMARK    8  A    between atoms: C20_28  and  C21_29 
REMARK    9  A    between atoms: C21_29  and  C22_30 
ROOT
HETATM    1  C1  UNL     1      -4.784  20.222  71.620  1.00  0.00     0.210 C 
HETATM    2  O1  UNL     1      -5.028  18.897  71.990  1.00  0.00    -0.356 OA
ENDROOT
BRANCH   2   3
HETATM    3  C2  UNL     1      -6.203  18.240  71.659  1.00  0.00     0.069 A 
HETATM    4  C3  UNL     1      -6.187  16.922  71.295  1.00  0.00     0.039 A 
HETATM    5  C4  UNL     1      -7.354  16.264  70.965  1.00  0.00     0.034 A 
HETATM    6  C5  UNL     1      -8.590  16.893  70.983  1.00  0.00     0.052 A 
HETATM    7  C6  UNL     1      -8.556  18.234  71.361  1.00  0.00    -0.005 A 
HETATM    8  N1  UNL     1      -9.825  16.463  70.722  1.00  0.00    -0.286 N 
HETATM    9  C7  UNL     1      -9.857  18.646  71.328  1.00  0.00     0.031 A 
HETATM   10  C28 UNL     1      -7.396  18.914  71.696  1.00  0.00     0.050 A 
HETATM   11  C8  UNL     1     -10.608  17.582  70.946  1.00  0.00     0.102 A 
BRANCH   8  12
HETATM   12  C9  UNL     1     -10.346  15.218  70.352  1.00  0.00     0.261 C 
HETATM   13  O2  UNL     1      -9.808  14.237  71.151  1.00  0.00    -0.151 OA
HETATM   14  N2  UNL     1     -11.202  14.612  69.478  1.00  0.00    -0.337 N 
HETATM   15  C10 UNL     1     -12.153  14.822  68.424  1.00  0.00     0.159 C 
HETATM   16  C20 UNL     1     -11.220  13.071  69.471  1.00  0.00     0.094 C 
HETATM   17  C11 UNL     1     -11.476  14.008  67.338  1.00  0.00     0.153 C 
HETATM   18  C19 UNL     1     -11.449  12.673  68.059  1.00  0.00     0.060 C 
BRANCH  17  19
HETATM   19  O3  UNL     1     -12.044  14.040  66.108  1.00  0.00    -0.297 OA
BRANCH  19  20
HETATM   20  C12 UNL     1     -11.659  14.796  65.014  1.00  0.00     0.361 C 
HETATM   21  O4  UNL     1     -12.451  14.735  64.045  1.00  0.00    -0.238 OA
BRANCH  20  22
HETATM   22  N3  UNL     1     -10.510  15.576  64.925  1.00  0.00    -0.331 N 
HETATM   23  H11 UNL     1     -10.260  15.906  63.940  1.00  0.00     0.165 HD
BRANCH  22  24
HETATM   24  C13 UNL     1      -9.645  15.982  65.962  1.00  0.00     0.184 C 
BRANCH  24  25
HETATM   25  C14 UNL     1      -9.654  17.410  66.323  1.00  0.00     0.051 A 
HETATM   26  C15 UNL     1      -8.799  17.757  67.364  1.00  0.00     0.029 A 
HETATM   27  C16 UNL     1      -8.690  19.036  67.814  1.00  0.00     0.003 A 
HETATM   28  C17 UNL     1      -9.464  19.997  67.202  1.00  0.00     0.019 A 
HETATM   29  C18 UNL     1     -10.302  19.626  66.174  1.00  0.00     0.117 A 
HETATM   30  N4  UNL     1     -10.380  18.355  65.760  1.00  0.00    -0.264 NA
ENDBRANCH  24  25
ENDBRANCH  22  24
ENDBRANCH  20  22
ENDBRANCH  19  20
ENDBRANCH  17  19
BRANCH  16  31
HETATM   31  C21 UNL     1     -12.225  12.552  70.412  1.00  0.00     0.064 C 
BRANCH  31  32
HETATM   32  C22 UNL     1     -12.082  11.112  70.654  1.00  0.00    -0.056 A 
HETATM   33  C23 UNL     1     -12.894  10.442  71.514  1.00  0.00     0.007 A 
HETATM   34  C24 UNL     1     -12.753   9.077  71.710  1.00  0.00     0.001 A 
HETATM   35  C25 UNL     1     -11.769   8.400  71.017  1.00  0.00     0.000 A 
HETATM   36  C26 UNL     1     -10.949   9.067  70.151  1.00  0.00     0.001 A 
HETATM   37  C27 UNL     1     -11.100  10.437  69.963  1.00  0.00     0.007 A 
ENDBRANCH  31  32
ENDBRANCH  16  31
ENDBRANCH   8  12
ENDBRANCH   2   3
TORSDOF 7
BEGIN_RES HIS A  41
REMARK  2 active torsions:
REMARK  status: ('A' for Active; 'I' for Inactive)
REMARK    1  A    between atoms: CA   and  CB  
REMARK    2  A    between atoms: CB   and  CG  
ROOT
ATOM      1  CA  HIS A  41     -13.820  21.037  73.265  1.00 38.89     0.182 C 
ENDROOT
BRANCH   1   2
ATOM      2  CB  HIS A  41     -13.705  19.545  72.937  1.00 42.38     0.093 C 
BRANCH   2   3
ATOM      3  CG  HIS A  41     -14.052  19.204  71.522  1.00 37.90     0.028 A 
ATOM      4  CD2 HIS A  41     -15.021  18.412  71.006  1.00 37.33     0.114 A 
ATOM      5  NE2 HIS A  41     -14.895  18.457  69.639  1.00 41.88    -0.360 N 
ATOM      6  CE1 HIS A  41     -13.888  19.254  69.327  1.00 41.55     0.180 A 
ATOM      7  HE2 HIS A  41     -15.483  17.956  68.972  1.00  0.00     0.166 HD
ATOM      8  ND1 HIS A  41     -13.364  19.720  70.445  1.00 36.57    -0.354 N 
ATOM      9  HD1 HIS A  41     -12.573  20.362  70.503  1.00  0.00     0.166 HD
ENDBRANCH   2   3
ENDBRANCH   1   2
END_RES HIS A  41
BEGIN_RES CYS A 145
REMARK  1 active torsions:
REMARK  status: ('A' for Active; 'I' for Inactive)
REMARK    3  A    between atoms: CA   and  CB  
ROOT
ATOM     10  CA  CYS A 145     -14.607  19.162  64.101  1.00 29.71     0.186 C 
ENDROOT
BRANCH  10  11
ATOM     11  CB  CYS A 145     -14.100  19.110  65.541  1.00 31.75     0.120 C 
ATOM     12  SG  CYS A 145     -13.837  17.436  66.155  1.00 39.68    -0.095 SA
ENDBRANCH  10  11
END_RES CYS A 145
BEGIN_RES GLN A 189
REMARK  3 active torsions:
REMARK  status: ('A' for Active; 'I' for Inactive)
REMARK    4  A    between atoms: CA   and  CB  
REMARK    5  A    between atoms: CB   and  CG  
REMARK    6  A    between atoms: CG   and  CD  
REMARK       I    between atoms: CD   and  NE2 
ROOT
ATOM     13  CA  GLN A 189     -11.641  10.633  75.105  1.00 38.41     0.177 C 
ENDROOT
BRANCH  13  14
ATOM     14  CB  GLN A 189     -10.259  11.109  74.679  1.00 37.59     0.044 C 
BRANCH  14  15
ATOM     15  CG  GLN A 189      -9.730  10.406  73.439  1.00 45.60     0.105 C 
BRANCH  15  16
ATOM     16  CD  GLN A 189      -8.699  11.229  72.694  1.00 47.27     0.215 C 
ATOM     17  NE2 GLN A 189      -8.508  12.471  73.124  1.00 44.45    -0.370 N 
ATOM     18 2HE2 GLN A 189      -9.021  12.866  73.913  1.00  0.00     0.159 HD
ATOM     19 1HE2 GLN A 189      -7.815  13.026  72.622  1.00  0.00     0.159 HD
ATOM     20  OE1 GLN A 189      -8.081  10.753  71.742  1.00 41.09    -0.274 OA
ENDBRANCH  15  16
ENDBRANCH  14  15
ENDBRANCH  13  14
END_RES GLN A 189
BEGIN_RES ASN A 142
REMARK  2 active torsions:
REMARK  status: ('A' for Active; 'I' for Inactive)
REMARK    7  A    between atoms: CA   and  CB  
REMARK    8  A    between atoms: CB   and  CG  
REMARK       I    between atoms: CG   and  ND2 
ROOT
ATOM     21  CA  ASN A 142      -7.978  15.712  62.559  1.00 43.18     0.185 C 
ENDROOT
BRANCH  21  22
ATOM     22  CB  ASN A 142      -6.512  15.609  62.983  1.00 38.76     0.137 C 
BRANCH  22  23
ATOM     23  CG  ASN A 142      -6.347  15.422  64.479  1.00 50.71     0.217 C 
ATOM     24  ND2 ASN A 142      -6.072  16.513  65.185  1.00 55.08    -0.370 N 
ATOM     25 2HD2 ASN A 142      -5.973  17.434  64.756  1.00  0.00     0.159 HD
ATOM     26 1HD2 ASN A 142      -5.960  16.387  66.191  1.00  0.00     0.159 HD
ATOM     27  OD1 ASN A 142      -6.466  14.311  64.996  1.00 51.97    -0.274 OA
ENDBRANCH  22  23
ENDBRANCH  21  22
END_RES ASN A 142
BEGIN_RES LEU A  27
REMARK  2 active torsions:
REMARK  status: ('A' for Active; 'I' for Inactive)
REMARK    9  A    between atoms: CA   and  CB  
REMARK   10  A    between atoms: CB   and  CG  
ROOT
ATOM     28  CA  LEU A  27     -11.471  23.771  64.549  1.00 37.04     0.177 C 
ENDROOT
BRANCH  28  29
ATOM     29  CB  LEU A  27     -12.225  22.902  65.570  1.00 37.70     0.038 C 
BRANCH  29  30
ATOM     30  CG  LEU A  27     -12.519  23.400  66.985  1.00 36.32    -0.020 C 
ATOM     31  CD1 LEU A  27     -13.884  24.063  67.072  1.00 32.79     0.009 C 
ATOM     32  CD2 LEU A  27     -12.435  22.232  67.957  1.00 31.17     0.009 C 
ENDBRANCH  29  30
ENDBRANCH  28  29
END_RES LEU A  27
BEGIN_RES MET A  49
REMARK  3 active torsions:
REMARK  status: ('A' for Active; 'I' for Inactive)
REMARK   11  A    between atoms: CA   and  CB  
REMARK   12  A    between atoms: CB   and  CG  
REMARK   13  A    between atoms: CG   and  SD  
ROOT
ATOM     33  CA  MET A  49      -9.418  15.600  76.823  1.00 61.58     0.177 C 
ENDROOT
BRANCH  33  34
ATOM     34  CB  MET A  49      -8.930  15.410  75.386  1.00 62.15     0.045 C 
BRANCH  34  35
ATOM     35  CG  MET A  49      -9.561  16.376  74.396  1.00 60.24     0.076 C 
BRANCH  35  36
ATOM     36  SD  MET A  49     -11.303  16.700  74.726  1.00 77.15    -0.173 SA
ATOM     37  CE  MET A  49     -12.055  15.226  74.036  1.00 60.34     0.089 C 
ENDBRANCH  35  36
ENDBRANCH  34  35
ENDBRANCH  33  34
END_RES MET A  49
BEGIN_RES GLU A 166
REMARK  3 active torsions:
REMARK  status: ('A' for Active; 'I' for Inactive)
REMARK   14  A    between atoms: CA   and  CB  
REMARK   15  A    between atoms: CB   and  CG  
REMARK   16  A    between atoms: CG   and  CD  
ROOT
ATOM     38  CA  GLU A 166     -14.746   9.219  66.167  1.00 28.52     0.177 C 
ENDROOT
BRANCH  38  39
ATOM     39  CB  GLU A 166     -13.578   9.064  65.189  1.00 29.90     0.045 C 
BRANCH  39  40
ATOM     40  CG  GLU A 166     -12.405   9.998  65.419  1.00 36.08     0.116 C 
BRANCH  40  41
ATOM     41  CD  GLU A 166     -12.338  11.094  64.372  1.00 45.17     0.172 C 
ATOM     42  OE2 GLU A 166     -13.396  11.676  64.052  1.00 40.54    -0.648 OA
ATOM     43  OE1 GLU A 166     -11.227  11.381  63.876  1.00 50.70    -0.648 OA
ENDBRANCH  40  41
ENDBRANCH  39  40
ENDBRANCH  38  39
END_RES GLU A 166
BEGIN_RES HIS A 163
REMARK  2 active torsions:
REMARK  status: ('A' for Active; 'I' for Inactive)
REMARK   17  A    between atoms: CA   and  CB  
REMARK   18  A    between atoms: CB   and  CG  
ROOT
ATOM     44  CA  HIS A 163     -19.055  16.637  64.100  1.00 27.27     0.182 C 
ENDROOT
BRANCH  44  45
ATOM     45  CB  HIS A 163     -18.129  16.377  62.914  1.00 26.00     0.093 C 
BRANCH  45  46
ATOM     46  CG  HIS A 163     -17.127  15.295  63.166  1.00 26.66     0.028 A 
ATOM     47  ND1 HIS A 163     -17.487  13.975  63.334  1.00 26.97    -0.354 N 
ATOM     48  CE1 HIS A 163     -16.403  13.250  63.546  1.00 30.44     0.180 A 
ATOM     49  HD1 HIS A 163     -18.440  13.615  63.300  1.00  0.00     0.166 HD
ATOM     50  NE2 HIS A 163     -15.354  14.053  63.526  1.00 30.00    -0.360 N 
ATOM     51  CD2 HIS A 163     -15.780  15.338  63.291  1.00 29.24     0.114 A 
ATOM     52  HE2 HIS A 163     -14.385  13.766  63.664  1.00  0.00     0.166 HD
ENDBRANCH  45  46
ENDBRANCH  44  45
END_RES HIS A 163
BEGIN_RES HIS A 172
REMARK  2 active torsions:
REMARK  status: ('A' for Active; 'I' for Inactive)
REMARK   19  A    between atoms: CA   and  CB  
REMARK   20  A    between atoms: CB   and  CG  
ROOT
ATOM     53  CA  HIS A 172     -18.444   9.111  64.049  1.00 29.85     0.182 C 
ENDROOT
BRANCH  53  54
ATOM     54  CB  HIS A 172     -18.188  10.085  62.898  1.00 26.76     0.093 C 
BRANCH  54  55
ATOM     55  CG  HIS A 172     -16.959   9.765  62.107  1.00 28.76     0.028 A 
ATOM     56  CD2 HIS A 172     -16.807   9.185  60.892  1.00 29.36     0.114 A 
ATOM     57  NE2 HIS A 172     -15.459   9.140  60.630  1.00 33.77    -0.360 N 
ATOM     58  CE1 HIS A 172     -14.806   9.677  61.646  1.00 32.44     0.180 A 
ATOM     59  HE2 HIS A 172     -15.032   8.754  59.789  1.00  0.00     0.166 HD
ATOM     60  ND1 HIS A 172     -15.689  10.066  62.550  1.00 29.32    -0.354 N 
ATOM     61  HD1 HIS A 172     -15.465  10.519  63.436  1.00  0.00     0.166 HD
ENDBRANCH  54  55
ENDBRANCH  53  54
END_RES HIS A 172
BEGIN_RES THR A  26
REMARK  2 active torsions:
REMARK  status: ('A' for Active; 'I' for Inactive)
REMARK   21  A    between atoms: CA   and  CB  
REMARK   22  A    between atoms: CB   and  OG1 
ROOT
ATOM     62  CA  THR A  26      -8.224  25.031  66.060  1.00 43.98     0.205 C 
ENDROOT
BRANCH  62  63
ATOM     63  CB  THR A  26      -7.184  25.490  65.034  1.00 45.90     0.146 C 
ATOM     64  CG2 THR A  26      -7.853  26.014  63.761  1.00 47.20     0.042 C 
BRANCH  63  65
ATOM     65  OG1 THR A  26      -6.361  26.514  65.603  1.00 50.51    -0.393 OA
ATOM     66  HG1 THR A  26      -5.797  26.141  66.271  1.00  0.00     0.210 HD
ENDBRANCH  63  65
ENDBRANCH  62  63
END_RES THR A  26
ENDMDL
MODEL 4
REMARK VINA RESULT:      -9.3      1.359      1.914
REMARK  9 active torsions:
REMARK  status: ('A' for Active; 'I' for Inactive)
REMARK    1  A    between atoms: O1_2  and  C2_3 
REMARK    2  A    between atoms: N1_10  and  C9_11 
REMARK    3  A    between atoms: C11_15  and  O3_16 
REMARK    4  A    between atoms: O3_16  and  C12_17 
REMARK    5  A    between atoms: C12_17  and  N3_19 
REMARK    6  A    between atoms: N3_19  and  C13_20 
REMARK    7  A    between atoms: C13_20  and  C14_21 
REMARK    8  A    between atoms: C20_28  and  C21_29 
REMARK    9  A    between atoms: C21_29  and  C22_30 
ROOT
HETATM    1  C1  UNL     1     -12.817   8.918  71.739  1.00  0.00     0.210 C 
HETATM    2  O1  UNL     1     -13.291  10.174  72.126  1.00  0.00    -0.356 OA
ENDROOT
BRANCH   2   3
HETATM    3  C2  UNL     1     -12.908  11.341  71.481  1.00  0.00     0.069 A 
HETATM    4  C3  UNL     1     -12.187  11.291  70.320  1.00  0.00     0.039 A 
HETATM    5  C4  UNL     1     -11.804  12.448  69.673  1.00  0.00     0.034 A 
HETATM    6  C5  UNL     1     -12.121  13.708  70.159  1.00  0.00     0.052 A 
HETATM    7  C6  UNL     1     -12.857  13.707  71.344  1.00  0.00    -0.005 A 
HETATM    8  N1  UNL     1     -11.875  14.938  69.707  1.00  0.00    -0.286 N 
HETATM    9  C7  UNL     1     -13.071  15.025  71.629  1.00  0.00     0.031 A 
HETATM   10  C28 UNL     1     -13.252  12.558  72.008  1.00  0.00     0.050 A 
HETATM   11  C8  UNL     1     -12.482  15.752  70.647  1.00  0.00     0.102 A 
BRANCH   8  12
HETATM   12  C9  UNL     1     -11.223  15.426  68.569  1.00  0.00     0.261 C 
HETATM   13  O2  UNL     1     -10.899  16.749  68.754  1.00  0.00    -0.151 OA
HETATM   14  N2  UNL     1     -10.787  15.066  67.326  1.00  0.00    -0.337 N 
HETATM   15  C10 UNL     1     -10.650  13.985  66.393  1.00  0.00     0.159 C 
HETATM   16  C20 UNL     1     -10.244  16.192  66.423  1.00  0.00     0.094 C 
HETATM   17  C11 UNL     1     -11.457  14.567  65.247  1.00  0.00     0.153 C 
HETATM   18  C19 UNL     1     -10.648  15.834  65.040  1.00  0.00     0.060 C 
BRANCH  17  19
HETATM   19  O3  UNL     1     -11.650  13.768  64.170  1.00  0.00    -0.297 OA
BRANCH  19  20
HETATM   20  C12 UNL     1     -11.913  12.409  64.156  1.00  0.00     0.361 C 
HETATM   21  O4  UNL     1     -13.077  12.107  64.506  1.00  0.00    -0.238 OA
BRANCH  20  22
HETATM   22  N3  UNL     1     -11.013  11.408  63.798  1.00  0.00    -0.331 N 
HETATM   23  H11 UNL     1     -11.239  10.899  62.886  1.00  0.00     0.165 HD
BRANCH  22  24
HETATM   24  C13 UNL     1      -9.853  10.989  64.482  1.00  0.00     0.184 C 
BRANCH  24  25
HETATM   25  C14 UNL     1      -9.997   9.860  65.417  1.00  0.00     0.051 A 
HETATM   26  C15 UNL     1     -10.436  10.205  66.691  1.00  0.00     0.029 A 
HETATM   27  C16 UNL     1     -10.621   9.277  67.668  1.00  0.00     0.003 A 
HETATM   28  C17 UNL     1     -10.357   7.962  67.358  1.00  0.00     0.019 A 
HETATM   29  C18 UNL     1      -9.923   7.647  66.090  1.00  0.00     0.117 A 
HETATM   30  N4  UNL     1      -9.754   8.591  65.155  1.00  0.00    -0.264 NA
ENDBRANCH  24  25
ENDBRANCH  22  24
ENDBRANCH  20  22
ENDBRANCH  19  20
ENDBRANCH  17  19
BRANCH  16  31
HETATM   31  C21 UNL     1      -8.793  16.355  66.601  1.00  0.00     0.064 C 
BRANCH  31  32
HETATM   32  C22 UNL     1      -8.412  17.742  66.891  1.00  0.00    -0.056 A 
HETATM   33  C23 UNL     1      -7.248  18.053  67.521  1.00  0.00     0.007 A 
HETATM   34  C24 UNL     1      -6.900  19.372  67.765  1.00  0.00     0.001 A 
HETATM   35  C25 UNL     1      -7.756  20.376  67.357  1.00  0.00     0.000 A 
HETATM   36  C26 UNL     1      -8.928  20.071  66.723  1.00  0.00     0.001 A 
HETATM   37  C27 UNL     1      -9.267  18.743  66.484  1.00  0.00     0.007 A 
ENDBRANCH  31  32
ENDBRANCH  16  31
ENDBRANCH   8  12
ENDBRANCH   2   3
TORSDOF 7
BEGIN_RES HIS A  41
REMARK  2 active torsions:
REMARK  status: ('A' for Active; 'I' for Inactive)
REMARK    1  A    between atoms: CA   and  CB  
REMARK    2  A    between atoms: CB   and  CG  
ROOT
ATOM      1  CA  HIS A  41     -13.820  21.037  73.265  1.00 38.89     0.182 C 
ENDROOT
BRANCH   1   2
ATOM      2  CB  HIS A  41     -13.705  19.545  72.937  1.00 42.38     0.093 C 
BRANCH   2   3
ATOM      3  CG  HIS A  41     -14.058  19.203  71.524  1.00 37.90     0.028 A 
ATOM      4  CD2 HIS A  41     -13.433  19.480  70.355  1.00 37.33     0.114 A 
ATOM      5  NE2 HIS A  41     -14.187  18.922  69.351  1.00 41.88    -0.360 N 
ATOM      6  CE1 HIS A  41     -15.235  18.319  69.885  1.00 41.55     0.180 A 
ATOM      7  HE2 HIS A  41     -13.973  18.967  68.355  1.00  0.00     0.166 HD
ATOM      8  ND1 HIS A  41     -15.179  18.471  71.196  1.00 36.57    -0.354 N 
ATOM      9  HD1 HIS A  41     -15.860  18.105  71.861  1.00  0.00     0.166 HD
ENDBRANCH   2   3
ENDBRANCH   1   2
END_RES HIS A  41
BEGIN_RES CYS A 145
REMARK  1 active torsions:
REMARK  status: ('A' for Active; 'I' for Inactive)
REMARK    3  A    between atoms: CA   and  CB  
ROOT
ATOM     10  CA  CYS A 145     -14.607  19.162  64.101  1.00 29.71     0.186 C 
ENDROOT
BRANCH  10  11
ATOM     11  CB  CYS A 145     -14.100  19.110  65.541  1.00 31.75     0.120 C 
ATOM     12  SG  CYS A 145     -13.825  17.437  66.151  1.00 39.68    -0.095 SA
ENDBRANCH  10  11
END_RES CYS A 145
BEGIN_RES GLN A 189
REMARK  3 active torsions:
REMARK  status: ('A' for Active; 'I' for Inactive)
REMARK    4  A    between atoms: CA   and  CB  
REMARK    5  A    between atoms: CB   and  CG  
REMARK    6  A    between atoms: CG   and  CD  
REMARK       I    between atoms: CD   and  NE2 
ROOT
ATOM     13  CA  GLN A 189     -11.641  10.633  75.105  1.00 38.41     0.177 C 
ENDROOT
BRANCH  13  14
ATOM     14  CB  GLN A 189     -10.259  11.109  74.679  1.00 37.59     0.044 C 
BRANCH  14  15
ATOM     15  CG  GLN A 189      -9.881  10.689  73.268  1.00 45.60     0.105 C 
BRANCH  15  16
ATOM     16  CD  GLN A 189      -9.350  11.840  72.437  1.00 47.27     0.215 C 
ATOM     17  NE2 GLN A 189      -8.566  11.519  71.413  1.00 44.45    -0.370 N 
ATOM     18 2HE2 GLN A 189      -8.323  10.554  71.186  1.00  0.00     0.159 HD
ATOM     19 1HE2 GLN A 189      -8.208  12.293  70.854  1.00  0.00     0.159 HD
ATOM     20  OE1 GLN A 189      -9.642  13.004  72.711  1.00 41.09    -0.274 OA
ENDBRANCH  15  16
ENDBRANCH  14  15
ENDBRANCH  13  14
END_RES GLN A 189
BEGIN_RES ASN A 142
REMARK  2 active torsions:
REMARK  status: ('A' for Active; 'I' for Inactive)
REMARK    7  A    between atoms: CA   and  CB  
REMARK    8  A    between atoms: CB   and  CG  
REMARK       I    between atoms: CG   and  ND2 
ROOT
ATOM     21  CA  ASN A 142      -7.978  15.712  62.559  1.00 43.18     0.185 C 
ENDROOT
BRANCH  21  22
ATOM     22  CB  ASN A 142      -6.512  15.609  62.983  1.00 38.76     0.137 C 
BRANCH  22  23
ATOM     23  CG  ASN A 142      -6.334  14.887  64.305  1.00 50.71     0.217 C 
ATOM     24  ND2 ASN A 142      -5.476  15.427  65.163  1.00 55.08    -0.370 N 
ATOM     25 2HD2 ASN A 142      -4.957  16.281  64.957  1.00  0.00     0.159 HD
ATOM     26 1HD2 ASN A 142      -5.356  14.941  66.052  1.00  0.00     0.159 HD
ATOM     27  OD1 ASN A 142      -6.960  13.857  64.553  1.00 51.97    -0.274 OA
ENDBRANCH  22  23
ENDBRANCH  21  22
END_RES ASN A 142
BEGIN_RES LEU A  27
REMARK  2 active torsions:
REMARK  status: ('A' for Active; 'I' for Inactive)
REMARK    9  A    between atoms: CA   and  CB  
REMARK   10  A    between atoms: CB   and  CG  
ROOT
ATOM     28  CA  LEU A  27     -11.471  23.771  64.549  1.00 37.04     0.177 C 
ENDROOT
BRANCH  28  29
ATOM     29  CB  LEU A  27     -12.225  22.902  65.570  1.00 37.70     0.038 C 
BRANCH  29  30
ATOM     30  CG  LEU A  27     -12.493  23.388  66.995  1.00 36.32    -0.020 C 
ATOM     31  CD1 LEU A  27     -13.847  24.070  67.108  1.00 32.79     0.009 C 
ATOM     32  CD2 LEU A  27     -12.411  22.208  67.952  1.00 31.17     0.009 C 
ENDBRANCH  29  30
ENDBRANCH  28  29
END_RES LEU A  27
BEGIN_RES MET A  49
REMARK  3 active torsions:
REMARK  status: ('A' for Active; 'I' for Inactive)
REMARK   11  A    between atoms: CA   and  CB  
REMARK   12  A    between atoms: CB   and  CG  
REMARK   13  A    between atoms: CG   and  SD  
ROOT
ATOM     33  CA  MET A  49      -9.418  15.600  76.823  1.00 61.58     0.177 C 
ENDROOT
BRANCH  33  34
ATOM     34  CB  MET A  49      -8.930  15.410  75.386  1.00 62.15     0.045 C 
BRANCH  34  35
ATOM     35  CG  MET A  49      -9.773  16.142  74.354  1.00 60.24     0.076 C 
BRANCH  35  36
ATOM     36  SD  MET A  49      -8.815  17.260  73.313  1.00 77.15    -0.173 SA
ATOM     37  CE  MET A  49      -8.943  16.433  71.728  1.00 60.34     0.089 C 
ENDBRANCH  35  36
ENDBRANCH  34  35
ENDBRANCH  33  34
END_RES MET A  49
BEGIN_RES GLU A 166
REMARK  3 active torsions:
REMARK  status: ('A' for Active; 'I' for Inactive)
REMARK   14  A    between atoms: CA   and  CB  
REMARK   15  A    between atoms: CB   and  CG  
REMARK   16  A    between atoms: CG   and  CD  
ROOT
ATOM     38  CA  GLU A 166     -14.746   9.219  66.167  1.00 28.52     0.177 C 
ENDROOT
BRANCH  38  39
ATOM     39  CB  GLU A 166     -13.578   9.064  65.189  1.00 29.90     0.045 C 
BRANCH  39  40
ATOM     40  CG  GLU A 166     -13.558   7.773  64.394  1.00 36.08     0.116 C 
BRANCH  40  41
ATOM     41  CD  GLU A 166     -12.538   7.812  63.272  1.00 45.17     0.172 C 
ATOM     42  OE2 GLU A 166     -12.233   8.921  62.783  1.00 40.54    -0.648 OA
ATOM     43  OE1 GLU A 166     -12.031   6.737  62.885  1.00 50.70    -0.648 OA
ENDBRANCH  40  41
ENDBRANCH  39  40
ENDBRANCH  38  39
END_RES GLU A 166
BEGIN_RES HIS A 163
REMARK  2 active torsions:
REMARK  status: ('A' for Active; 'I' for Inactive)
REMARK   17  A    between atoms: CA   and  CB  
REMARK   18  A    between atoms: CB   and  CG  
ROOT
ATOM     44  CA  HIS A 163     -19.055  16.637  64.100  1.00 27.27     0.182 C 
ENDROOT
BRANCH  44  45
ATOM     45  CB  HIS A 163     -18.129  16.377  62.914  1.00 26.00     0.093 C 
BRANCH  45  46
ATOM     46  CG  HIS A 163     -17.083  15.344  63.190  1.00 26.66     0.028 A 
ATOM     47  ND1 HIS A 163     -15.743  15.651  63.283  1.00 26.97    -0.354 N 
ATOM     48  CE1 HIS A 163     -15.056  14.549  63.526  1.00 30.44     0.180 A 
ATOM     49  HD1 HIS A 163     -15.343  16.584  63.182  1.00  0.00     0.166 HD
ATOM     50  NE2 HIS A 163     -15.903  13.537  63.587  1.00 30.00    -0.360 N 
ATOM     51  CD2 HIS A 163     -17.177  14.007  63.380  1.00 29.24     0.114 A 
ATOM     52  HE2 HIS A 163     -15.651  12.564  63.760  1.00  0.00     0.166 HD
ENDBRANCH  45  46
ENDBRANCH  44  45
END_RES HIS A 163
BEGIN_RES HIS A 172
REMARK  2 active torsions:
REMARK  status: ('A' for Active; 'I' for Inactive)
REMARK   19  A    between atoms: CA   and  CB  
REMARK   20  A    between atoms: CB   and  CG  
ROOT
ATOM     53  CA  HIS A 172     -18.444   9.111  64.049  1.00 29.85     0.182 C 
ENDROOT
BRANCH  53  54
ATOM     54  CB  HIS A 172     -18.188  10.085  62.898  1.00 26.76     0.093 C 
BRANCH  54  55
ATOM     55  CG  HIS A 172     -16.876   9.868  62.212  1.00 28.76     0.028 A 
ATOM     56  CD2 HIS A 172     -15.618  10.228  62.560  1.00 29.36     0.114 A 
ATOM     57  NE2 HIS A 172     -14.777   9.767  61.577  1.00 33.77    -0.360 N 
ATOM     58  CE1 HIS A 172     -15.493   9.141  60.659  1.00 32.44     0.180 A 
ATOM     59  HE2 HIS A 172     -13.764   9.889  61.558  1.00  0.00     0.166 HD
ATOM     60  ND1 HIS A 172     -16.763   9.184  61.020  1.00 29.32    -0.354 N 
ATOM     61  HD1 HIS A 172     -17.539   8.776  60.499  1.00  0.00     0.166 HD
ENDBRANCH  54  55
ENDBRANCH  53  54
END_RES HIS A 172
BEGIN_RES THR A  26
REMARK  2 active torsions:
REMARK  status: ('A' for Active; 'I' for Inactive)
REMARK   21  A    between atoms: CA   and  CB  
REMARK   22  A    between atoms: CB   and  OG1 
ROOT
ATOM     62  CA  THR A  26      -8.224  25.031  66.060  1.00 43.98     0.205 C 
ENDROOT
BRANCH  62  63
ATOM     63  CB  THR A  26      -7.184  25.490  65.034  1.00 45.90     0.146 C 
ATOM     64  CG2 THR A  26      -7.853  26.019  63.764  1.00 47.20     0.042 C 
BRANCH  63  65
ATOM     65  OG1 THR A  26      -6.357  26.510  65.604  1.00 50.51    -0.393 OA
ATOM     66  HG1 THR A  26      -5.444  26.253  65.550  1.00  0.00     0.210 HD
ENDBRANCH  63  65
ENDBRANCH  62  63
END_RES THR A  26
ENDMDL
MODEL 5
REMARK VINA RESULT:      -9.2      1.689      5.310
REMARK  9 active torsions:
REMARK  status: ('A' for Active; 'I' for Inactive)
REMARK    1  A    between atoms: O1_2  and  C2_3 
REMARK    2  A    between atoms: N1_10  and  C9_11 
REMARK    3  A    between atoms: C11_15  and  O3_16 
REMARK    4  A    between atoms: O3_16  and  C12_17 
REMARK    5  A    between atoms: C12_17  and  N3_19 
REMARK    6  A    between atoms: N3_19  and  C13_20 
REMARK    7  A    between atoms: C13_20  and  C14_21 
REMARK    8  A    between atoms: C20_28  and  C21_29 
REMARK    9  A    between atoms: C21_29  and  C22_30 
ROOT
HETATM    1  C1  UNL     1      -4.375  21.858  65.480  1.00  0.00     0.210 C 
HETATM    2  O1  UNL     1      -5.261  22.241  66.490  1.00  0.00    -0.356 OA
ENDROOT
BRANCH   2   3
HETATM    3  C2  UNL     1      -5.905  21.316  67.299  1.00  0.00     0.069 A 
HETATM    4  C3  UNL     1      -7.077  20.737  66.898  1.00  0.00     0.039 A 
HETATM    5  C4  UNL     1      -7.722  19.817  67.698  1.00  0.00     0.034 A 
HETATM    6  C5  UNL     1      -7.226  19.433  68.936  1.00  0.00     0.052 A 
HETATM    7  C6  UNL     1      -6.029  20.050  69.300  1.00  0.00    -0.005 A 
HETATM    8  N1  UNL     1      -7.661  18.571  69.855  1.00  0.00    -0.286 N 
HETATM    9  C7  UNL     1      -5.717  19.526  70.521  1.00  0.00     0.031 A 
HETATM   10  C28 UNL     1      -5.366  20.976  68.512  1.00  0.00     0.050 A 
HETATM   11  C8  UNL     1      -6.696  18.644  70.844  1.00  0.00     0.102 A 
BRANCH   8  12
HETATM   12  C9  UNL     1      -8.765  17.713  69.915  1.00  0.00     0.261 C 
HETATM   13  O2  UNL     1      -8.631  16.864  70.988  1.00  0.00    -0.151 OA
HETATM   14  N2  UNL     1      -9.939  17.406  69.292  1.00  0.00    -0.337 N 
HETATM   15  C10 UNL     1     -10.840  17.762  68.232  1.00  0.00     0.159 C 
HETATM   16  C20 UNL     1     -10.688  16.153  69.789  1.00  0.00     0.094 C 
HETATM   17  C11 UNL     1     -10.825  16.451  67.468  1.00  0.00     0.153 C 
HETATM   18  C19 UNL     1     -11.314  15.549  68.586  1.00  0.00     0.060 C 
BRANCH  17  19
HETATM   19  O3  UNL     1     -11.508  16.420  66.298  1.00  0.00    -0.297 OA
BRANCH  19  20
HETATM   20  C12 UNL     1     -11.054  16.003  65.059  1.00  0.00     0.361 C 
HETATM   21  O4  UNL     1     -11.383  16.754  64.112  1.00  0.00    -0.238 OA
BRANCH  20  22
HETATM   22  N3  UNL     1     -10.296  14.862  64.810  1.00  0.00    -0.331 N 
HETATM   23  H11 UNL     1      -9.310  15.043  64.442  1.00  0.00     0.165 HD
BRANCH  22  24
HETATM   24  C13 UNL     1     -10.664  13.511  64.985  1.00  0.00     0.184 C 
BRANCH  24  25
HETATM   25  C14 UNL     1     -10.487  12.936  66.329  1.00  0.00     0.051 A 
HETATM   26  C15 UNL     1     -11.627  12.353  66.872  1.00  0.00     0.029 A 
HETATM   27  C16 UNL     1     -11.628  11.777  68.103  1.00  0.00     0.003 A 
HETATM   28  C17 UNL     1     -10.448  11.785  68.814  1.00  0.00     0.019 A 
HETATM   29  C18 UNL     1      -9.335  12.369  68.253  1.00  0.00     0.117 A 
HETATM   30  N4  UNL     1      -9.375  12.926  67.037  1.00  0.00    -0.264 NA
ENDBRANCH  24  25
ENDBRANCH  22  24
ENDBRANCH  20  22
ENDBRANCH  19  20
ENDBRANCH  17  19
BRANCH  16  31
HETATM   31  C21 UNL     1     -11.643  16.499  70.853  1.00  0.00     0.064 C 
BRANCH  31  32
HETATM   32  C22 UNL     1     -12.373  15.331  71.359  1.00  0.00    -0.056 A 
HETATM   33  C23 UNL     1     -13.727  15.322  71.477  1.00  0.00     0.007 A 
HETATM   34  C24 UNL     1     -14.396  14.199  71.937  1.00  0.00     0.001 A 
HETATM   35  C25 UNL     1     -13.664  13.079  72.279  1.00  0.00     0.000 A 
HETATM   36  C26 UNL     1     -12.302  13.080  72.164  1.00  0.00     0.001 A 
HETATM   37  C27 UNL     1     -11.642  14.214  71.701  1.00  0.00     0.007 A 
ENDBRANCH  31  32
ENDBRANCH  16  31
ENDBRANCH   8  12
ENDBRANCH   2   3
TORSDOF 7
BEGIN_RES HIS A  41
REMARK  2 active torsions:
REMARK  status: ('A' for Active; 'I' for Inactive)
REMARK    1  A    between atoms: CA   and  CB  
REMARK    2  A    between atoms: CB   and  CG  
ROOT
ATOM      1  CA  HIS A  41     -13.820  21.037  73.265  1.00 38.89     0.182 C 
ENDROOT
BRANCH   1   2
ATOM      2  CB  HIS A  41     -13.705  19.545  72.937  1.00 42.38     0.093 C 
BRANCH   2   3
ATOM      3  CG  HIS A  41     -14.187  19.184  71.567  1.00 37.90     0.028 A 
ATOM      4  CD2 HIS A  41     -15.305  18.543  71.154  1.00 37.33     0.114 A 
ATOM      5  NE2 HIS A  41     -15.253  18.481  69.782  1.00 41.88    -0.360 N 
ATOM      6  CE1 HIS A  41     -14.144  19.069  69.369  1.00 41.55     0.180 A 
ATOM      7  HE2 HIS A  41     -15.956  18.051  69.181  1.00  0.00     0.166 HD
ATOM      8  ND1 HIS A  41     -13.484  19.505  70.426  1.00 36.57    -0.354 N 
ATOM      9  HD1 HIS A  41     -12.593  20.001  70.401  1.00  0.00     0.166 HD
ENDBRANCH   2   3
ENDBRANCH   1   2
END_RES HIS A  41
BEGIN_RES CYS A 145
REMARK  1 active torsions:
REMARK  status: ('A' for Active; 'I' for Inactive)
REMARK    3  A    between atoms: CA   and  CB  
ROOT
ATOM     10  CA  CYS A 145     -14.607  19.162  64.101  1.00 29.71     0.186 C 
ENDROOT
BRANCH  10  11
ATOM     11  CB  CYS A 145     -14.100  19.110  65.541  1.00 31.75     0.120 C 
ATOM     12  SG  CYS A 145     -14.310  17.501  66.324  1.00 39.68    -0.095 SA
ENDBRANCH  10  11
END_RES CYS A 145
BEGIN_RES GLN A 189
REMARK  3 active torsions:
REMARK  status: ('A' for Active; 'I' for Inactive)
REMARK    4  A    between atoms: CA   and  CB  
REMARK    5  A    between atoms: CB   and  CG  
REMARK    6  A    between atoms: CG   and  CD  
REMARK       I    between atoms: CD   and  NE2 
ROOT
ATOM     13  CA  GLN A 189     -11.641  10.633  75.105  1.00 38.41     0.177 C 
ENDROOT
BRANCH  13  14
ATOM     14  CB  GLN A 189     -10.259  11.109  74.679  1.00 37.59     0.044 C 
BRANCH  14  15
ATOM     15  CG  GLN A 189      -9.870  10.666  73.278  1.00 45.60     0.105 C 
BRANCH  15  16
ATOM     16  CD  GLN A 189      -8.657   9.757  73.267  1.00 47.27     0.215 C 
ATOM     17  NE2 GLN A 189      -8.550   8.899  74.275  1.00 44.45    -0.370 N 
ATOM     18 2HE2 GLN A 189      -9.239   8.843  75.026  1.00  0.00     0.159 HD
ATOM     19 1HE2 GLN A 189      -7.734   8.287  74.268  1.00  0.00     0.159 HD
ATOM     20  OE1 GLN A 189      -7.827   9.824  72.360  1.00 41.09    -0.274 OA
ENDBRANCH  15  16
ENDBRANCH  14  15
ENDBRANCH  13  14
END_RES GLN A 189
BEGIN_RES ASN A 142
REMARK  2 active torsions:
REMARK  status: ('A' for Active; 'I' for Inactive)
REMARK    7  A    between atoms: CA   and  CB  
REMARK    8  A    between atoms: CB   and  CG  
REMARK       I    between atoms: CG   and  ND2 
ROOT
ATOM     21  CA  ASN A 142      -7.978  15.712  62.559  1.00 43.18     0.185 C 
ENDROOT
BRANCH  21  22
ATOM     22  CB  ASN A 142      -6.512  15.609  62.983  1.00 38.76     0.137 C 
BRANCH  22  23
ATOM     23  CG  ASN A 142      -6.302  14.647  64.137  1.00 50.71     0.217 C 
ATOM     24  ND2 ASN A 142      -5.072  14.576  64.632  1.00 55.08    -0.370 N 
ATOM     25 2HD2 ASN A 142      -4.299  15.133  64.264  1.00  0.00     0.159 HD
ATOM     26 1HD2 ASN A 142      -4.930  13.929  65.408  1.00  0.00     0.159 HD
ATOM     27  OD1 ASN A 142      -7.234  13.977  64.580  1.00 51.97    -0.274 OA
ENDBRANCH  22  23
ENDBRANCH  21  22
END_RES ASN A 142
BEGIN_RES LEU A  27
REMARK  2 active torsions:
REMARK  status: ('A' for Active; 'I' for Inactive)
REMARK    9  A    between atoms: CA   and  CB  
REMARK   10  A    between atoms: CB   and  CG  
ROOT
ATOM     28  CA  LEU A  27     -11.471  23.771  64.549  1.00 37.04     0.177 C 
ENDROOT
BRANCH  28  29
ATOM     29  CB  LEU A  27     -12.225  22.902  65.570  1.00 37.70     0.038 C 
BRANCH  29  30
ATOM     30  CG  LEU A  27     -12.479  23.381  66.999  1.00 36.32    -0.020 C 
ATOM     31  CD1 LEU A  27     -13.851  24.020  67.140  1.00 32.79     0.009 C 
ATOM     32  CD2 LEU A  27     -12.340  22.206  67.956  1.00 31.17     0.009 C 
ENDBRANCH  29  30
ENDBRANCH  28  29
END_RES LEU A  27
BEGIN_RES MET A  49
REMARK  3 active torsions:
REMARK  status: ('A' for Active; 'I' for Inactive)
REMARK   11  A    between atoms: CA   and  CB  
REMARK   12  A    between atoms: CB   and  CG  
REMARK   13  A    between atoms: CG   and  SD  
ROOT
ATOM     33  CA  MET A  49      -9.418  15.600  76.823  1.00 61.58     0.177 C 
ENDROOT
BRANCH  33  34
ATOM     34  CB  MET A  49      -8.930  15.410  75.386  1.00 62.15     0.045 C 
BRANCH  34  35
ATOM     35  CG  MET A  49      -9.700  16.235  74.367  1.00 60.24     0.076 C 
BRANCH  35  36
ATOM     36  SD  MET A  49     -11.171  17.022  75.051  1.00 77.15    -0.173 SA
ATOM     37  CE  MET A  49     -12.371  15.703  74.872  1.00 60.34     0.089 C 
ENDBRANCH  35  36
ENDBRANCH  34  35
ENDBRANCH  33  34
END_RES MET A  49
BEGIN_RES GLU A 166
REMARK  3 active torsions:
REMARK  status: ('A' for Active; 'I' for Inactive)
REMARK   14  A    between atoms: CA   and  CB  
REMARK   15  A    between atoms: CB   and  CG  
REMARK   16  A    between atoms: CG   and  CD  
ROOT
ATOM     38  CA  GLU A 166     -14.746   9.219  66.167  1.00 28.52     0.177 C 
ENDROOT
BRANCH  38  39
ATOM     39  CB  GLU A 166     -13.578   9.064  65.189  1.00 29.90     0.045 C 
BRANCH  39  40
ATOM     40  CG  GLU A 166     -13.644   7.853  64.278  1.00 36.08     0.116 C 
BRANCH  40  41
ATOM     41  CD  GLU A 166     -12.444   7.772  63.354  1.00 45.17     0.172 C 
ATOM     42  OE2 GLU A 166     -11.838   6.683  63.260  1.00 40.54    -0.648 OA
ATOM     43  OE1 GLU A 166     -12.113   8.792  62.711  1.00 50.70    -0.648 OA
ENDBRANCH  40  41
ENDBRANCH  39  40
ENDBRANCH  38  39
END_RES GLU A 166
BEGIN_RES HIS A 163
REMARK  2 active torsions:
REMARK  status: ('A' for Active; 'I' for Inactive)
REMARK   17  A    between atoms: CA   and  CB  
REMARK   18  A    between atoms: CB   and  CG  
ROOT
ATOM     44  CA  HIS A 163     -19.055  16.637  64.100  1.00 27.27     0.182 C 
ENDROOT
BRANCH  44  45
ATOM     45  CB  HIS A 163     -18.129  16.377  62.914  1.00 26.00     0.093 C 
BRANCH  45  46
ATOM     46  CG  HIS A 163     -17.089  15.337  63.187  1.00 26.66     0.028 A 
ATOM     47  ND1 HIS A 163     -15.747  15.637  63.284  1.00 26.97    -0.354 N 
ATOM     48  CE1 HIS A 163     -15.067  14.530  63.522  1.00 30.44     0.180 A 
ATOM     49  HD1 HIS A 163     -15.343  16.569  63.188  1.00  0.00     0.166 HD
ATOM     50  NE2 HIS A 163     -15.919  13.522  63.577  1.00 30.00    -0.360 N 
ATOM     51  CD2 HIS A 163     -17.190  14.000  63.370  1.00 29.24     0.114 A 
ATOM     52  HE2 HIS A 163     -15.673  12.547  63.746  1.00  0.00     0.166 HD
ENDBRANCH  45  46
ENDBRANCH  44  45
END_RES HIS A 163
BEGIN_RES HIS A 172
REMARK  2 active torsions:
REMARK  status: ('A' for Active; 'I' for Inactive)
REMARK   19  A    between atoms: CA   and  CB  
REMARK   20  A    between atoms: CB   and  CG  
ROOT
ATOM     53  CA  HIS A 172     -18.444   9.111  64.049  1.00 29.85     0.182 C 
ENDROOT
BRANCH  53  54
ATOM     54  CB  HIS A 172     -18.188  10.085  62.898  1.00 26.76     0.093 C 
BRANCH  54  55
ATOM     55  CG  HIS A 172     -16.863   9.886  62.231  1.00 28.76     0.028 A 
ATOM     56  CD2 HIS A 172     -15.624  10.315  62.565  1.00 29.36     0.114 A 
ATOM     57  NE2 HIS A 172     -14.758   9.838  61.611  1.00 33.77    -0.360 N 
ATOM     58  CE1 HIS A 172     -15.442   9.137  60.723  1.00 32.44     0.180 A 
ATOM     59  HE2 HIS A 172     -13.751  10.000  61.590  1.00  0.00     0.166 HD
ATOM     60  ND1 HIS A 172     -16.715   9.146  61.076  1.00 29.32    -0.354 N 
ATOM     61  HD1 HIS A 172     -17.470   8.680  60.574  1.00  0.00     0.166 HD
ENDBRANCH  54  55
ENDBRANCH  53  54
END_RES HIS A 172
BEGIN_RES THR A  26
REMARK  2 active torsions:
REMARK  status: ('A' for Active; 'I' for Inactive)
REMARK   21  A    between atoms: CA   and  CB  
REMARK   22  A    between atoms: CB   and  OG1 
ROOT
ATOM     62  CA  THR A  26      -8.224  25.031  66.060  1.00 43.98     0.205 C 
ENDROOT
BRANCH  62  63
ATOM     63  CB  THR A  26      -7.184  25.490  65.034  1.00 45.90     0.146 C 
ATOM     64  CG2 THR A  26      -7.852  25.983  63.749  1.00 47.20     0.042 C 
BRANCH  63  65
ATOM     65  OG1 THR A  26      -6.381  26.535  65.592  1.00 50.51    -0.393 OA
ATOM     66  HG1 THR A  26      -6.385  26.475  66.540  1.00  0.00     0.210 HD
ENDBRANCH  63  65
ENDBRANCH  62  63
END_RES THR A  26
ENDMDL
MODEL 6
REMARK VINA RESULT:      -9.2      1.828      5.418
REMARK  9 active torsions:
REMARK  status: ('A' for Active; 'I' for Inactive)
REMARK    1  A    between atoms: O1_2  and  C2_3 
REMARK    2  A    between atoms: N1_10  and  C9_11 
REMARK    3  A    between atoms: C11_15  and  O3_16 
REMARK    4  A    between atoms: O3_16  and  C12_17 
REMARK    5  A    between atoms: C12_17  and  N3_19 
REMARK    6  A    between atoms: N3_19  and  C13_20 
REMARK    7  A    between atoms: C13_20  and  C14_21 
REMARK    8  A    between atoms: C20_28  and  C21_29 
REMARK    9  A    between atoms: C21_29  and  C22_30 
ROOT
HETATM    1  C1  UNL     1      -4.215  20.987  71.734  1.00  0.00     0.210 C 
HETATM    2  O1  UNL     1      -4.822  21.407  70.547  1.00  0.00    -0.356 OA
ENDROOT
BRANCH   2   3
HETATM    3  C2  UNL     1      -5.697  20.599  69.837  1.00  0.00     0.069 A 
HETATM    4  C3  UNL     1      -6.304  19.532  70.438  1.00  0.00     0.039 A 
HETATM    5  C4  UNL     1      -7.176  18.725  69.737  1.00  0.00     0.034 A 
HETATM    6  C5  UNL     1      -7.480  18.947  68.401  1.00  0.00     0.052 A 
HETATM    7  C6  UNL     1      -6.837  20.046  67.833  1.00  0.00    -0.005 A 
HETATM    8  N1  UNL     1      -8.285  18.320  67.543  1.00  0.00    -0.286 N 
HETATM    9  C7  UNL     1      -7.283  20.090  66.544  1.00  0.00     0.031 A 
HETATM   10  C28 UNL     1      -5.959  20.869  68.519  1.00  0.00     0.050 A 
HETATM   11  C8  UNL     1      -8.147  19.057  66.379  1.00  0.00     0.102 A 
BRANCH   8  12
HETATM   12  C9  UNL     1      -9.141  17.220  67.663  1.00  0.00     0.261 C 
HETATM   13  O2  UNL     1      -9.437  16.727  66.414  1.00  0.00    -0.151 OA
HETATM   14  N2  UNL     1      -9.800  16.449  68.576  1.00  0.00    -0.337 N 
HETATM   15  C10 UNL     1     -10.019  16.205  69.974  1.00  0.00     0.159 C 
HETATM   16  C20 UNL     1     -10.791  15.404  68.024  1.00  0.00     0.094 C 
HETATM   17  C11 UNL     1     -11.522  16.412  70.010  1.00  0.00     0.153 C 
HETATM   18  C19 UNL     1     -11.907  15.347  69.001  1.00  0.00     0.060 C 
BRANCH  17  19
HETATM   19  O3  UNL     1     -12.115  16.362  71.227  1.00  0.00    -0.297 OA
BRANCH  19  20
HETATM   20  C12 UNL     1     -12.955  15.380  71.724  1.00  0.00     0.361 C 
HETATM   21  O4  UNL     1     -14.172  15.673  71.675  1.00  0.00    -0.238 OA
BRANCH  20  22
HETATM   22  N3  UNL     1     -12.556  14.153  72.248  1.00  0.00    -0.331 N 
HETATM   23  H11 UNL     1     -11.574  14.137  72.667  1.00  0.00     0.165 HD
BRANCH  22  24
HETATM   24  C13 UNL     1     -13.280  12.944  72.295  1.00  0.00     0.184 C 
BRANCH  24  25
HETATM   25  C14 UNL     1     -12.714  11.794  71.570  1.00  0.00     0.051 A 
HETATM   26  C15 UNL     1     -11.752  12.116  70.619  1.00  0.00     0.029 A 
HETATM   27  C16 UNL     1     -11.132  11.168  69.867  1.00  0.00     0.003 A 
HETATM   28  C17 UNL     1     -11.489   9.854  70.074  1.00  0.00     0.019 A 
HETATM   29  C18 UNL     1     -12.444   9.563  71.022  1.00  0.00     0.117 A 
HETATM   30  N4  UNL     1     -13.031  10.526  71.742  1.00  0.00    -0.264 NA
ENDBRANCH  24  25
ENDBRANCH  22  24
ENDBRANCH  20  22
ENDBRANCH  19  20
ENDBRANCH  17  19
BRANCH  16  31
HETATM   31  C21 UNL     1     -10.123  14.113  67.801  1.00  0.00     0.064 C 
BRANCH  31  32
HETATM   32  C22 UNL     1     -10.511  13.489  66.530  1.00  0.00    -0.056 A 
HETATM   33  C23 UNL     1     -11.777  13.049  66.301  1.00  0.00     0.007 A 
HETATM   34  C24 UNL     1     -12.124  12.482  65.085  1.00  0.00     0.001 A 
HETATM   35  C25 UNL     1     -11.163  12.368  64.101  1.00  0.00     0.000 A 
HETATM   36  C26 UNL     1      -9.888  12.808  64.324  1.00  0.00     0.001 A 
HETATM   37  C27 UNL     1      -9.550  13.375  65.549  1.00  0.00     0.007 A 
ENDBRANCH  31  32
ENDBRANCH  16  31
ENDBRANCH   8  12
ENDBRANCH   2   3
TORSDOF 7
BEGIN_RES HIS A  41
REMARK  2 active torsions:
REMARK  status: ('A' for Active; 'I' for Inactive)
REMARK    1  A    between atoms: CA   and  CB  
REMARK    2  A    between atoms: CB   and  CG  
ROOT
ATOM      1  CA  HIS A  41     -13.820  21.037  73.265  1.00 38.89     0.182 C 
ENDROOT
BRANCH   1   2
ATOM      2  CB  HIS A  41     -13.705  19.545  72.937  1.00 42.38     0.093 C 
BRANCH   2   3
ATOM      3  CG  HIS A  41     -14.053  19.204  71.522  1.00 37.90     0.028 A 
ATOM      4  CD2 HIS A  41     -15.170  18.660  70.983  1.00 37.33     0.114 A 
ATOM      5  NE2 HIS A  41     -14.962  18.569  69.629  1.00 41.88    -0.360 N 
ATOM      6  CE1 HIS A  41     -13.763  19.046  69.345  1.00 41.55     0.180 A 
ATOM      7  HE2 HIS A  41     -15.626  18.193  68.951  1.00  0.00     0.166 HD
ATOM      8  ND1 HIS A  41     -13.194  19.439  70.470  1.00 36.57    -0.354 N 
ATOM      9  HD1 HIS A  41     -12.265  19.851  70.548  1.00  0.00     0.166 HD
ENDBRANCH   2   3
ENDBRANCH   1   2
END_RES HIS A  41
BEGIN_RES CYS A 145
REMARK  1 active torsions:
REMARK  status: ('A' for Active; 'I' for Inactive)
REMARK    3  A    between atoms: CA   and  CB  
ROOT
ATOM     10  CA  CYS A 145     -14.607  19.162  64.101  1.00 29.71     0.186 C 
ENDROOT
BRANCH  10  11
ATOM     11  CB  CYS A 145     -14.100  19.110  65.541  1.00 31.75     0.120 C 
ATOM     12  SG  CYS A 145     -13.443  17.501  66.019  1.00 39.68    -0.095 SA
ENDBRANCH  10  11
END_RES CYS A 145
BEGIN_RES GLN A 189
REMARK  3 active torsions:
REMARK  status: ('A' for Active; 'I' for Inactive)
REMARK    4  A    between atoms: CA   and  CB  
REMARK    5  A    between atoms: CB   and  CG  
REMARK    6  A    between atoms: CG   and  CD  
REMARK       I    between atoms: CD   and  NE2 
ROOT
ATOM     13  CA  GLN A 189     -11.641  10.633  75.105  1.00 38.41     0.177 C 
ENDROOT
BRANCH  13  14
ATOM     14  CB  GLN A 189     -10.259  11.109  74.679  1.00 37.59     0.044 C 
BRANCH  14  15
ATOM     15  CG  GLN A 189      -9.771  10.476  73.386  1.00 45.60     0.105 C 
BRANCH  15  16
ATOM     16  CD  GLN A 189      -8.488   9.689  73.567  1.00 47.27     0.215 C 
ATOM     17  NE2 GLN A 189      -8.556   8.614  74.344  1.00 44.45    -0.370 N 
ATOM     18 2HE2 GLN A 189      -9.419   8.320  74.802  1.00  0.00     0.159 HD
ATOM     19 1HE2 GLN A 189      -7.693   8.085  74.466  1.00  0.00     0.159 HD
ATOM     20  OE1 GLN A 189      -7.447  10.045  73.013  1.00 41.09    -0.274 OA
ENDBRANCH  15  16
ENDBRANCH  14  15
ENDBRANCH  13  14
END_RES GLN A 189
BEGIN_RES ASN A 142
REMARK  2 active torsions:
REMARK  status: ('A' for Active; 'I' for Inactive)
REMARK    7  A    between atoms: CA   and  CB  
REMARK    8  A    between atoms: CB   and  CG  
REMARK       I    between atoms: CG   and  ND2 
ROOT
ATOM     21  CA  ASN A 142      -7.978  15.712  62.559  1.00 43.18     0.185 C 
ENDROOT
BRANCH  21  22
ATOM     22  CB  ASN A 142      -6.512  15.609  62.983  1.00 38.76     0.137 C 
BRANCH  22  23
ATOM     23  CG  ASN A 142      -6.345  15.046  64.382  1.00 50.71     0.217 C 
ATOM     24  ND2 ASN A 142      -6.794  15.798  65.379  1.00 55.08    -0.370 N 
ATOM     25 2HD2 ASN A 142      -7.230  16.709  65.228  1.00  0.00     0.159 HD
ATOM     26 1HD2 ASN A 142      -6.681  15.420  66.320  1.00  0.00     0.159 HD
ATOM     27  OD1 ASN A 142      -5.819  13.948  64.564  1.00 51.97    -0.274 OA
ENDBRANCH  22  23
ENDBRANCH  21  22
END_RES ASN A 142
BEGIN_RES LEU A  27
REMARK  2 active torsions:
REMARK  status: ('A' for Active; 'I' for Inactive)
REMARK    9  A    between atoms: CA   and  CB  
REMARK   10  A    between atoms: CB   and  CG  
ROOT
ATOM     28  CA  LEU A  27     -11.471  23.771  64.549  1.00 37.04     0.177 C 
ENDROOT
BRANCH  28  29
ATOM     29  CB  LEU A  27     -12.225  22.902  65.570  1.00 37.70     0.038 C 
BRANCH  29  30
ATOM     30  CG  LEU A  27     -12.519  23.399  66.985  1.00 36.32    -0.020 C 
ATOM     31  CD1 LEU A  27     -13.881  24.069  67.071  1.00 32.79     0.009 C 
ATOM     32  CD2 LEU A  27     -12.441  22.230  67.956  1.00 31.17     0.009 C 
ENDBRANCH  29  30
ENDBRANCH  28  29
END_RES LEU A  27
BEGIN_RES MET A  49
REMARK  3 active torsions:
REMARK  status: ('A' for Active; 'I' for Inactive)
REMARK   11  A    between atoms: CA   and  CB  
REMARK   12  A    between atoms: CB   and  CG  
REMARK   13  A    between atoms: CG   and  SD  
ROOT
ATOM     33  CA  MET A  49      -9.418  15.600  76.823  1.00 61.58     0.177 C 
ENDROOT
BRANCH  33  34
ATOM     34  CB  MET A  49      -8.930  15.410  75.386  1.00 62.15     0.045 C 
BRANCH  34  35
ATOM     35  CG  MET A  49      -9.848  16.030  74.344  1.00 60.24     0.076 C 
BRANCH  35  36
ATOM     36  SD  MET A  49      -9.109  17.433  73.487  1.00 77.15    -0.173 SA
ATOM     37  CE  MET A  49      -7.535  16.733  72.993  1.00 60.34     0.089 C 
ENDBRANCH  35  36
ENDBRANCH  34  35
ENDBRANCH  33  34
END_RES MET A  49
BEGIN_RES GLU A 166
REMARK  3 active torsions:
REMARK  status: ('A' for Active; 'I' for Inactive)
REMARK   14  A    between atoms: CA   and  CB  
REMARK   15  A    between atoms: CB   and  CG  
REMARK   16  A    between atoms: CG   and  CD  
ROOT
ATOM     38  CA  GLU A 166     -14.746   9.219  66.167  1.00 28.52     0.177 C 
ENDROOT
BRANCH  38  39
ATOM     39  CB  GLU A 166     -13.578   9.064  65.189  1.00 29.90     0.045 C 
BRANCH  39  40
ATOM     40  CG  GLU A 166     -13.625   7.832  64.305  1.00 36.08     0.116 C 
BRANCH  40  41
ATOM     41  CD  GLU A 166     -12.507   7.827  63.279  1.00 45.17     0.172 C 
ATOM     42  OE2 GLU A 166     -12.064   6.726  62.887  1.00 40.54    -0.648 OA
ATOM     43  OE1 GLU A 166     -12.077   8.922  62.856  1.00 50.70    -0.648 OA
ENDBRANCH  40  41
ENDBRANCH  39  40
ENDBRANCH  38  39
END_RES GLU A 166
BEGIN_RES HIS A 163
REMARK  2 active torsions:
REMARK  status: ('A' for Active; 'I' for Inactive)
REMARK   17  A    between atoms: CA   and  CB  
REMARK   18  A    between atoms: CB   and  CG  
ROOT
ATOM     44  CA  HIS A 163     -19.055  16.637  64.100  1.00 27.27     0.182 C 
ENDROOT
BRANCH  44  45
ATOM     45  CB  HIS A 163     -18.129  16.377  62.914  1.00 26.00     0.093 C 
BRANCH  45  46
ATOM     46  CG  HIS A 163     -17.105  15.319  63.178  1.00 26.66     0.028 A 
ATOM     47  ND1 HIS A 163     -15.759  15.597  63.276  1.00 26.97    -0.354 N 
ATOM     48  CE1 HIS A 163     -15.095  14.478  63.505  1.00 30.44     0.180 A 
ATOM     49  HD1 HIS A 163     -15.340  16.523  63.186  1.00  0.00     0.166 HD
ATOM     50  NE2 HIS A 163     -15.963  13.483  63.554  1.00 30.00    -0.360 N 
ATOM     51  CD2 HIS A 163     -17.227  13.982  63.352  1.00 29.24     0.114 A 
ATOM     52  HE2 HIS A 163     -15.732  12.503  63.716  1.00  0.00     0.166 HD
ENDBRANCH  45  46
ENDBRANCH  44  45
END_RES HIS A 163
BEGIN_RES HIS A 172
REMARK  2 active torsions:
REMARK  status: ('A' for Active; 'I' for Inactive)
REMARK   19  A    between atoms: CA   and  CB  
REMARK   20  A    between atoms: CB   and  CG  
ROOT
ATOM     53  CA  HIS A 172     -18.444   9.111  64.049  1.00 29.85     0.182 C 
ENDROOT
BRANCH  53  54
ATOM     54  CB  HIS A 172     -18.188  10.085  62.898  1.00 26.76     0.093 C 
BRANCH  54  55
ATOM     55  CG  HIS A 172     -16.878   9.865  62.209  1.00 28.76     0.028 A 
ATOM     56  CD2 HIS A 172     -15.623  10.254  62.536  1.00 29.36     0.114 A 
ATOM     57  NE2 HIS A 172     -14.782   9.774  61.561  1.00 33.77    -0.360 N 
ATOM     58  CE1 HIS A 172     -15.496   9.108  60.669  1.00 32.44     0.180 A 
ATOM     59  HE2 HIS A 172     -13.772   9.910  61.530  1.00  0.00     0.166 HD
ATOM     60  ND1 HIS A 172     -16.764   9.144  61.039  1.00 29.32    -0.354 N 
ATOM     61  HD1 HIS A 172     -17.537   8.708  60.538  1.00  0.00     0.166 HD
ENDBRANCH  54  55
ENDBRANCH  53  54
END_RES HIS A 172
BEGIN_RES THR A  26
REMARK  2 active torsions:
REMARK  status: ('A' for Active; 'I' for Inactive)
REMARK   21  A    between atoms: CA   and  CB  
REMARK   22  A    between atoms: CB   and  OG1 
ROOT
ATOM     62  CA  THR A  26      -8.224  25.031  66.060  1.00 43.98     0.205 C 
ENDROOT
BRANCH  62  63
ATOM     63  CB  THR A  26      -7.184  25.490  65.034  1.00 45.90     0.146 C 
ATOM     64  CG2 THR A  26      -7.853  26.013  63.761  1.00 47.20     0.042 C 
BRANCH  63  65
ATOM     65  OG1 THR A  26      -6.361  26.515  65.602  1.00 50.51    -0.393 OA
ATOM     66  HG1 THR A  26      -6.132  27.151  64.935  1.00  0.00     0.210 HD
ENDBRANCH  63  65
ENDBRANCH  62  63
END_RES THR A  26
ENDMDL
MODEL 7
REMARK VINA RESULT:      -9.1      1.791      6.056
REMARK  9 active torsions:
REMARK  status: ('A' for Active; 'I' for Inactive)
REMARK    1  A    between atoms: O1_2  and  C2_3 
REMARK    2  A    between atoms: N1_10  and  C9_11 
REMARK    3  A    between atoms: C11_15  and  O3_16 
REMARK    4  A    between atoms: O3_16  and  C12_17 
REMARK    5  A    between atoms: C12_17  and  N3_19 
REMARK    6  A    between atoms: N3_19  and  C13_20 
REMARK    7  A    between atoms: C13_20  and  C14_21 
REMARK    8  A    between atoms: C20_28  and  C21_29 
REMARK    9  A    between atoms: C21_29  and  C22_30 
ROOT
HETATM    1  C1  UNL     1      -3.793  20.486  68.859  1.00  0.00     0.210 C 
HETATM    2  O1  UNL     1      -5.105  20.964  68.804  1.00  0.00    -0.356 OA
ENDROOT
BRANCH   2   3
HETATM    3  C2  UNL     1      -6.155  20.190  68.335  1.00  0.00     0.069 A 
HETATM    4  C3  UNL     1      -6.171  18.839  68.539  1.00  0.00     0.039 A 
HETATM    5  C4  UNL     1      -7.214  18.063  68.076  1.00  0.00     0.034 A 
HETATM    6  C5  UNL     1      -8.289  18.604  67.385  1.00  0.00     0.052 A 
HETATM    7  C6  UNL     1      -8.228  19.985  67.202  1.00  0.00    -0.005 A 
HETATM    8  N1  UNL     1      -9.391  18.064  66.865  1.00  0.00    -0.286 N 
HETATM    9  C7  UNL     1      -9.371  20.304  66.527  1.00  0.00     0.031 A 
HETATM   10  C28 UNL     1      -7.191  20.781  67.659  1.00  0.00     0.050 A 
HETATM   11  C8  UNL     1     -10.060  19.151  66.331  1.00  0.00     0.102 A 
BRANCH   8  12
HETATM   12  C9  UNL     1      -9.894  16.758  66.835  1.00  0.00     0.261 C 
HETATM   13  O2  UNL     1     -10.106  16.376  65.531  1.00  0.00    -0.151 OA
HETATM   14  N2  UNL     1     -10.256  15.713  67.634  1.00  0.00    -0.337 N 
HETATM   15  C10 UNL     1     -10.321  15.228  68.983  1.00  0.00     0.159 C 
HETATM   16  C20 UNL     1     -10.940  14.513  66.949  1.00  0.00     0.094 C 
HETATM   17  C11 UNL     1     -11.817  14.988  69.070  1.00  0.00     0.153 C 
HETATM   18  C19 UNL     1     -11.940  14.005  67.921  1.00  0.00     0.060 C 
BRANCH  17  19
HETATM   19  O3  UNL     1     -12.304  14.603  70.275  1.00  0.00    -0.297 OA
BRANCH  19  20
HETATM   20  C12 UNL     1     -12.967  15.378  71.210  1.00  0.00     0.361 C 
HETATM   21  O4  UNL     1     -14.204  15.184  71.253  1.00  0.00    -0.238 OA
BRANCH  20  22
HETATM   22  N3  UNL     1     -12.380  16.311  72.060  1.00  0.00    -0.331 N 
HETATM   23  H11 UNL     1     -13.038  17.068  72.428  1.00  0.00     0.165 HD
BRANCH  22  24
HETATM   24  C13 UNL     1     -11.039  16.379  72.493  1.00  0.00     0.184 C 
BRANCH  24  25
HETATM   25  C14 UNL     1     -10.247  17.537  72.043  1.00  0.00     0.051 A 
HETATM   26  C15 UNL     1      -9.224  17.918  72.905  1.00  0.00     0.029 A 
HETATM   27  C16 UNL     1      -8.402  18.967  72.633  1.00  0.00     0.003 A 
HETATM   28  C17 UNL     1      -8.613  19.655  71.459  1.00  0.00     0.019 A 
HETATM   29  C18 UNL     1      -9.632  19.257  70.623  1.00  0.00     0.117 A 
HETATM   30  N4  UNL     1     -10.420  18.218  70.928  1.00  0.00    -0.264 NA
ENDBRANCH  24  25
ENDBRANCH  22  24
ENDBRANCH  20  22
ENDBRANCH  19  20
ENDBRANCH  17  19
BRANCH  16  31
HETATM   31  C21 UNL     1      -9.948  13.511  66.530  1.00  0.00     0.064 C 
BRANCH  31  32
HETATM   32  C22 UNL     1     -10.399  12.714  65.384  1.00  0.00    -0.056 A 
HETATM   33  C23 UNL     1      -9.933  11.458  65.151  1.00  0.00     0.007 A 
HETATM   34  C24 UNL     1     -10.390  10.716  64.074  1.00  0.00     0.001 A 
HETATM   35  C25 UNL     1     -11.333  11.270  63.232  1.00  0.00     0.000 A 
HETATM   36  C26 UNL     1     -11.807  12.532  63.459  1.00  0.00     0.001 A 
HETATM   37  C27 UNL     1     -11.340  13.268  64.544  1.00  0.00     0.007 A 
ENDBRANCH  31  32
ENDBRANCH  16  31
ENDBRANCH   8  12
ENDBRANCH   2   3
TORSDOF 7
BEGIN_RES HIS A  41
REMARK  2 active torsions:
REMARK  status: ('A' for Active; 'I' for Inactive)
REMARK    1  A    between atoms: CA   and  CB  
REMARK    2  A    between atoms: CB   and  CG  
ROOT
ATOM      1  CA  HIS A  41     -13.820  21.037  73.265  1.00 38.89     0.182 C 
ENDROOT
BRANCH   1   2
ATOM      2  CB  HIS A  41     -13.705  19.545  72.937  1.00 42.38     0.093 C 
BRANCH   2   3
ATOM      3  CG  HIS A  41     -14.060  19.203  71.524  1.00 37.90     0.028 A 
ATOM      4  CD2 HIS A  41     -15.150  18.595  70.999  1.00 37.33     0.114 A 
ATOM      5  NE2 HIS A  41     -14.965  18.538  69.639  1.00 41.88    -0.360 N 
ATOM      6  CE1 HIS A  41     -13.806  19.097  69.339  1.00 41.55     0.180 A 
ATOM      7  HE2 HIS A  41     -15.617  18.130  68.969  1.00  0.00     0.166 HD
ATOM      8  ND1 HIS A  41     -13.240  19.509  70.459  1.00 36.57    -0.354 N 
ATOM      9  HD1 HIS A  41     -12.338  19.980  70.525  1.00  0.00     0.166 HD
ENDBRANCH   2   3
ENDBRANCH   1   2
END_RES HIS A  41
BEGIN_RES CYS A 145
REMARK  1 active torsions:
REMARK  status: ('A' for Active; 'I' for Inactive)
REMARK    3  A    between atoms: CA   and  CB  
ROOT
ATOM     10  CA  CYS A 145     -14.607  19.162  64.101  1.00 29.71     0.186 C 
ENDROOT
BRANCH  10  11
ATOM     11  CB  CYS A 145     -14.100  19.110  65.541  1.00 31.75     0.120 C 
ATOM     12  SG  CYS A 145     -13.608  17.461  66.075  1.00 39.68    -0.095 SA
ENDBRANCH  10  11
END_RES CYS A 145
BEGIN_RES GLN A 189
REMARK  3 active torsions:
REMARK  status: ('A' for Active; 'I' for Inactive)
REMARK    4  A    between atoms: CA   and  CB  
REMARK    5  A    between atoms: CB   and  CG  
REMARK    6  A    between atoms: CG   and  CD  
REMARK       I    between atoms: CD   and  NE2 
ROOT
ATOM     13  CA  GLN A 189     -11.641  10.633  75.105  1.00 38.41     0.177 C 
ENDROOT
BRANCH  13  14
ATOM     14  CB  GLN A 189     -10.259  11.109  74.679  1.00 37.59     0.044 C 
BRANCH  14  15
ATOM     15  CG  GLN A 189     -10.076  11.168  73.171  1.00 45.60     0.105 C 
BRANCH  15  16
ATOM     16  CD  GLN A 189     -10.877  12.282  72.527  1.00 47.27     0.215 C 
ATOM     17  NE2 GLN A 189     -11.187  12.124  71.245  1.00 44.45    -0.370 N 
ATOM     18 2HE2 GLN A 189     -10.908  11.302  70.708  1.00  0.00     0.159 HD
ATOM     19 1HE2 GLN A 189     -11.726  12.873  70.811  1.00  0.00     0.159 HD
ATOM     20  OE1 GLN A 189     -11.213  13.273  73.175  1.00 41.09    -0.274 OA
ENDBRANCH  15  16
ENDBRANCH  14  15
ENDBRANCH  13  14
END_RES GLN A 189
BEGIN_RES ASN A 142
REMARK  2 active torsions:
REMARK  status: ('A' for Active; 'I' for Inactive)
REMARK    7  A    between atoms: CA   and  CB  
REMARK    8  A    between atoms: CB   and  CG  
REMARK       I    between atoms: CG   and  ND2 
ROOT
ATOM     21  CA  ASN A 142      -7.978  15.712  62.559  1.00 43.18     0.185 C 
ENDROOT
BRANCH  21  22
ATOM     22  CB  ASN A 142      -6.512  15.609  62.983  1.00 38.76     0.137 C 
BRANCH  22  23
ATOM     23  CG  ASN A 142      -6.344  15.026  64.373  1.00 50.71     0.217 C 
ATOM     24  ND2 ASN A 142      -7.139  15.512  65.319  1.00 55.08    -0.370 N 
ATOM     25 2HD2 ASN A 142      -7.831  16.239  65.134  1.00  0.00     0.159 HD
ATOM     26 1HD2 ASN A 142      -7.026  15.119  66.254  1.00  0.00     0.159 HD
ATOM     27  OD1 ASN A 142      -5.510  14.148  64.595  1.00 51.97    -0.274 OA
ENDBRANCH  22  23
ENDBRANCH  21  22
END_RES ASN A 142
BEGIN_RES LEU A  27
REMARK  2 active torsions:
REMARK  status: ('A' for Active; 'I' for Inactive)
REMARK    9  A    between atoms: CA   and  CB  
REMARK   10  A    between atoms: CB   and  CG  
ROOT
ATOM     28  CA  LEU A  27     -11.471  23.771  64.549  1.00 37.04     0.177 C 
ENDROOT
BRANCH  28  29
ATOM     29  CB  LEU A  27     -12.225  22.902  65.570  1.00 37.70     0.038 C 
BRANCH  29  30
ATOM     30  CG  LEU A  27     -12.498  23.390  66.993  1.00 36.32    -0.020 C 
ATOM     31  CD1 LEU A  27     -13.858  24.060  67.103  1.00 32.79     0.009 C 
ATOM     32  CD2 LEU A  27     -12.406  22.215  67.954  1.00 31.17     0.009 C 
ENDBRANCH  29  30
ENDBRANCH  28  29
END_RES LEU A  27
BEGIN_RES MET A  49
REMARK  3 active torsions:
REMARK  status: ('A' for Active; 'I' for Inactive)
REMARK   11  A    between atoms: CA   and  CB  
REMARK   12  A    between atoms: CB   and  CG  
REMARK   13  A    between atoms: CG   and  SD  
ROOT
ATOM     33  CA  MET A  49      -9.418  15.600  76.823  1.00 61.58     0.177 C 
ENDROOT
BRANCH  33  34
ATOM     34  CB  MET A  49      -8.930  15.410  75.386  1.00 62.15     0.045 C 
BRANCH  34  35
ATOM     35  CG  MET A  49      -7.589  14.700  75.287  1.00 60.24     0.076 C 
BRANCH  35  36
ATOM     36  SD  MET A  49      -7.360  13.823  73.728  1.00 77.15    -0.173 SA
ATOM     37  CE  MET A  49      -5.832  14.559  73.151  1.00 60.34     0.089 C 
ENDBRANCH  35  36
ENDBRANCH  34  35
ENDBRANCH  33  34
END_RES MET A  49
BEGIN_RES GLU A 166
REMARK  3 active torsions:
REMARK  status: ('A' for Active; 'I' for Inactive)
REMARK   14  A    between atoms: CA   and  CB  
REMARK   15  A    between atoms: CB   and  CG  
REMARK   16  A    between atoms: CG   and  CD  
ROOT
ATOM     38  CA  GLU A 166     -14.746   9.219  66.167  1.00 28.52     0.177 C 
ENDROOT
BRANCH  38  39
ATOM     39  CB  GLU A 166     -13.578   9.064  65.189  1.00 29.90     0.045 C 
BRANCH  39  40
ATOM     40  CG  GLU A 166     -13.679   7.893  64.230  1.00 36.08     0.116 C 
BRANCH  40  41
ATOM     41  CD  GLU A 166     -12.389   7.674  63.463  1.00 45.17     0.172 C 
ATOM     42  OE2 GLU A 166     -11.385   7.273  64.090  1.00 40.54    -0.648 OA
ATOM     43  OE1 GLU A 166     -12.379   7.892  62.232  1.00 50.70    -0.648 OA
ENDBRANCH  40  41
ENDBRANCH  39  40
ENDBRANCH  38  39
END_RES GLU A 166
BEGIN_RES HIS A 163
REMARK  2 active torsions:
REMARK  status: ('A' for Active; 'I' for Inactive)
REMARK   17  A    between atoms: CA   and  CB  
REMARK   18  A    between atoms: CB   and  CG  
ROOT
ATOM     44  CA  HIS A 163     -19.055  16.637  64.100  1.00 27.27     0.182 C 
ENDROOT
BRANCH  44  45
ATOM     45  CB  HIS A 163     -18.129  16.377  62.914  1.00 26.00     0.093 C 
BRANCH  45  46
ATOM     46  CG  HIS A 163     -17.097  15.328  63.182  1.00 26.66     0.028 A 
ATOM     47  ND1 HIS A 163     -15.752  15.616  63.275  1.00 26.97    -0.354 N 
ATOM     48  CE1 HIS A 163     -15.081  14.503  63.510  1.00 30.44     0.180 A 
ATOM     49  HD1 HIS A 163     -15.340  16.544  63.178  1.00  0.00     0.166 HD
ATOM     50  NE2 HIS A 163     -15.942  13.502  63.568  1.00 30.00    -0.360 N 
ATOM     51  CD2 HIS A 163     -17.209  13.991  63.365  1.00 29.24     0.114 A 
ATOM     52  HE2 HIS A 163     -15.703  12.525  63.735  1.00  0.00     0.166 HD
ENDBRANCH  45  46
ENDBRANCH  44  45
END_RES HIS A 163
BEGIN_RES HIS A 172
REMARK  2 active torsions:
REMARK  status: ('A' for Active; 'I' for Inactive)
REMARK   19  A    between atoms: CA   and  CB  
REMARK   20  A    between atoms: CB   and  CG  
ROOT
ATOM     53  CA  HIS A 172     -18.444   9.111  64.049  1.00 29.85     0.182 C 
ENDROOT
BRANCH  53  54
ATOM     54  CB  HIS A 172     -18.188  10.085  62.898  1.00 26.76     0.093 C 
BRANCH  54  55
ATOM     55  CG  HIS A 172     -16.877   9.866  62.211  1.00 28.76     0.028 A 
ATOM     56  CD2 HIS A 172     -15.623  10.258  62.538  1.00 29.36     0.114 A 
ATOM     57  NE2 HIS A 172     -14.780   9.778  61.564  1.00 33.77    -0.360 N 
ATOM     58  CE1 HIS A 172     -15.492   9.111  60.672  1.00 32.44     0.180 A 
ATOM     59  HE2 HIS A 172     -13.770   9.916  61.535  1.00  0.00     0.166 HD
ATOM     60  ND1 HIS A 172     -16.760   9.145  61.041  1.00 29.32    -0.354 N 
ATOM     61  HD1 HIS A 172     -17.533   8.708  60.539  1.00  0.00     0.166 HD
ENDBRANCH  54  55
ENDBRANCH  53  54
END_RES HIS A 172
BEGIN_RES THR A  26
REMARK  2 active torsions:
REMARK  status: ('A' for Active; 'I' for Inactive)
REMARK   21  A    between atoms: CA   and  CB  
REMARK   22  A    between atoms: CB   and  OG1 
ROOT
ATOM     62  CA  THR A  26      -8.224  25.031  66.060  1.00 43.98     0.205 C 
ENDROOT
BRANCH  62  63
ATOM     63  CB  THR A  26      -7.184  25.490  65.034  1.00 45.90     0.146 C 
ATOM     64  CG2 THR A  26      -7.853  26.002  63.757  1.00 47.20     0.042 C 
BRANCH  63  65
ATOM     65  OG1 THR A  26      -6.368  26.522  65.599  1.00 50.51    -0.393 OA
ATOM     66  HG1 THR A  26      -5.694  26.136  66.147  1.00  0.00     0.210 HD
ENDBRANCH  63  65
ENDBRANCH  62  63
END_RES THR A  26
ENDMDL
MODEL 8
REMARK VINA RESULT:      -9.1      1.590      4.004
REMARK  9 active torsions:
REMARK  status: ('A' for Active; 'I' for Inactive)
REMARK    1  A    between atoms: O1_2  and  C2_3 
REMARK    2  A    between atoms: N1_10  and  C9_11 
REMARK    3  A    between atoms: C11_15  and  O3_16 
REMARK    4  A    between atoms: O3_16  and  C12_17 
REMARK    5  A    between atoms: C12_17  and  N3_19 
REMARK    6  A    between atoms: N3_19  and  C13_20 
REMARK    7  A    between atoms: C13_20  and  C14_21 
REMARK    8  A    between atoms: C20_28  and  C21_29 
REMARK    9  A    between atoms: C21_29  and  C22_30 
ROOT
HETATM    1  C1  UNL     1     -10.976  10.117  62.870  1.00  0.00     0.210 C 
HETATM    2  O1  UNL     1     -11.660  11.211  63.406  1.00  0.00    -0.356 OA
ENDROOT
BRANCH   2   3
HETATM    3  C2  UNL     1     -11.133  11.983  64.431  1.00  0.00     0.069 A 
HETATM    4  C3  UNL     1     -11.631  13.229  64.691  1.00  0.00     0.039 A 
HETATM    5  C4  UNL     1     -11.111  14.002  65.709  1.00  0.00     0.034 A 
HETATM    6  C5  UNL     1     -10.068  13.565  66.512  1.00  0.00     0.052 A 
HETATM    7  C6  UNL     1      -9.594  12.289  66.209  1.00  0.00    -0.005 A 
HETATM    8  N1  UNL     1      -9.427  14.120  67.541  1.00  0.00    -0.286 N 
HETATM    9  C7  UNL     1      -8.600  12.054  67.115  1.00  0.00     0.031 A 
HETATM   10  C28 UNL     1     -10.102  11.497  65.192  1.00  0.00     0.050 A 
HETATM   11  C8  UNL     1      -8.507  13.153  67.906  1.00  0.00     0.102 A 
BRANCH   8  12
HETATM   12  C9  UNL     1      -9.571  15.340  68.212  1.00  0.00     0.261 C 
HETATM   13  O2  UNL     1      -8.368  16.005  68.224  1.00  0.00    -0.151 OA
HETATM   14  N2  UNL     1     -10.479  16.120  68.868  1.00  0.00    -0.337 N 
HETATM   15  C10 UNL     1     -11.854  16.254  69.259  1.00  0.00     0.159 C 
HETATM   16  C20 UNL     1      -9.938  17.379  69.575  1.00  0.00     0.094 C 
HETATM   17  C11 UNL     1     -11.660  16.320  70.762  1.00  0.00     0.153 C 
HETATM   18  C19 UNL     1     -10.754  17.536  70.805  1.00  0.00     0.060 C 
BRANCH  17  19
HETATM   19  O3  UNL     1     -12.783  16.352  71.521  1.00  0.00    -0.297 OA
BRANCH  19  20
HETATM   20  C12 UNL     1     -13.056  15.623  72.665  1.00  0.00     0.361 C 
HETATM   21  O4  UNL     1     -13.545  16.299  73.599  1.00  0.00    -0.238 OA
BRANCH  20  22
HETATM   22  N3  UNL     1     -12.833  14.260  72.836  1.00  0.00    -0.331 N 
HETATM   23  H11 UNL     1     -11.939  14.009  73.364  1.00  0.00     0.165 HD
BRANCH  22  24
HETATM   24  C13 UNL     1     -13.633  13.181  72.406  1.00  0.00     0.184 C 
BRANCH  24  25
HETATM   25  C14 UNL     1     -13.013  12.209  71.490  1.00  0.00     0.051 A 
HETATM   26  C15 UNL     1     -12.297  12.769  70.437  1.00  0.00     0.029 A 
HETATM   27  C16 UNL     1     -11.664  12.007  69.506  1.00  0.00     0.003 A 
HETATM   28  C17 UNL     1     -11.752  10.638  69.634  1.00  0.00     0.019 A 
HETATM   29  C18 UNL     1     -12.466  10.110  70.685  1.00  0.00     0.117 A 
HETATM   30  N4  UNL     1     -13.075  10.895  71.582  1.00  0.00    -0.264 NA
ENDBRANCH  24  25
ENDBRANCH  22  24
ENDBRANCH  20  22
ENDBRANCH  19  20
ENDBRANCH  17  19
BRANCH  16  31
HETATM   31  C21 UNL     1      -9.975  18.543  68.677  1.00  0.00     0.064 C 
BRANCH  31  32
HETATM   32  C22 UNL     1      -8.677  19.220  68.577  1.00  0.00    -0.056 A 
HETATM   33  C23 UNL     1      -8.328  19.949  67.483  1.00  0.00     0.007 A 
HETATM   34  C24 UNL     1      -7.104  20.598  67.421  1.00  0.00     0.001 A 
HETATM   35  C25 UNL     1      -6.237  20.494  68.490  1.00  0.00     0.000 A 
HETATM   36  C26 UNL     1      -6.582  19.764  69.592  1.00  0.00     0.001 A 
HETATM   37  C27 UNL     1      -7.812  19.116  69.644  1.00  0.00     0.007 A 
ENDBRANCH  31  32
ENDBRANCH  16  31
ENDBRANCH   8  12
ENDBRANCH   2   3
TORSDOF 7
BEGIN_RES HIS A  41
REMARK  2 active torsions:
REMARK  status: ('A' for Active; 'I' for Inactive)
REMARK    1  A    between atoms: CA   and  CB  
REMARK    2  A    between atoms: CB   and  CG  
ROOT
ATOM      1  CA  HIS A  41     -13.820  21.037  73.265  1.00 38.89     0.182 C 
ENDROOT
BRANCH   1   2
ATOM      2  CB  HIS A  41     -13.705  19.545  72.937  1.00 42.38     0.093 C 
BRANCH   2   3
ATOM      3  CG  HIS A  41     -14.113  19.195  71.540  1.00 37.90     0.028 A 
ATOM      4  CD2 HIS A  41     -13.640  19.609  70.341  1.00 37.33     0.114 A 
ATOM      5  NE2 HIS A  41     -14.373  18.967  69.373  1.00 41.88    -0.360 N 
ATOM      6  CE1 HIS A  41     -15.261  18.182  69.958  1.00 41.55     0.180 A 
ATOM      7  HE2 HIS A  41     -14.251  19.078  68.367  1.00  0.00     0.166 HD
ATOM      8  ND1 HIS A  41     -15.123  18.299  71.266  1.00 36.57    -0.354 N 
ATOM      9  HD1 HIS A  41     -15.678  17.804  71.963  1.00  0.00     0.166 HD
ENDBRANCH   2   3
ENDBRANCH   1   2
END_RES HIS A  41
BEGIN_RES CYS A 145
REMARK  1 active torsions:
REMARK  status: ('A' for Active; 'I' for Inactive)
REMARK    3  A    between atoms: CA   and  CB  
ROOT
ATOM     10  CA  CYS A 145     -14.607  19.162  64.101  1.00 29.71     0.186 C 
ENDROOT
BRANCH  10  11
ATOM     11  CB  CYS A 145     -14.100  19.110  65.541  1.00 31.75     0.120 C 
ATOM     12  SG  CYS A 145     -13.480  17.491  66.031  1.00 39.68    -0.095 SA
ENDBRANCH  10  11
END_RES CYS A 145
BEGIN_RES GLN A 189
REMARK  3 active torsions:
REMARK  status: ('A' for Active; 'I' for Inactive)
REMARK    4  A    between atoms: CA   and  CB  
REMARK    5  A    between atoms: CB   and  CG  
REMARK    6  A    between atoms: CG   and  CD  
REMARK       I    between atoms: CD   and  NE2 
ROOT
ATOM     13  CA  GLN A 189     -11.641  10.633  75.105  1.00 38.41     0.177 C 
ENDROOT
BRANCH  13  14
ATOM     14  CB  GLN A 189     -10.259  11.109  74.679  1.00 37.59     0.044 C 
BRANCH  14  15
ATOM     15  CG  GLN A 189     -10.001  10.967  73.188  1.00 45.60     0.105 C 
BRANCH  15  16
ATOM     16  CD  GLN A 189      -9.441  12.231  72.567  1.00 47.27     0.215 C 
ATOM     17  NE2 GLN A 189      -8.420  12.079  71.731  1.00 44.45    -0.370 N 
ATOM     18 2HE2 GLN A 189      -8.022  11.166  71.509  1.00  0.00     0.159 HD
ATOM     19 1HE2 GLN A 189      -8.043  12.929  71.313  1.00  0.00     0.159 HD
ATOM     20  OE1 GLN A 189      -9.922  13.332  72.836  1.00 41.09    -0.274 OA
ENDBRANCH  15  16
ENDBRANCH  14  15
ENDBRANCH  13  14
END_RES GLN A 189
BEGIN_RES ASN A 142
REMARK  2 active torsions:
REMARK  status: ('A' for Active; 'I' for Inactive)
REMARK    7  A    between atoms: CA   and  CB  
REMARK    8  A    between atoms: CB   and  CG  
REMARK       I    between atoms: CG   and  ND2 
ROOT
ATOM     21  CA  ASN A 142      -7.978  15.712  62.559  1.00 43.18     0.185 C 
ENDROOT
BRANCH  21  22
ATOM     22  CB  ASN A 142      -6.512  15.609  62.983  1.00 38.76     0.137 C 
BRANCH  22  23
ATOM     23  CG  ASN A 142      -6.349  15.190  64.432  1.00 50.71     0.217 C 
ATOM     24  ND2 ASN A 142      -5.151  14.741  64.786  1.00 55.08    -0.370 N 
ATOM     25 2HD2 ASN A 142      -4.372  14.675  64.130  1.00  0.00     0.159 HD
ATOM     26 1HD2 ASN A 142      -5.041  14.459  65.761  1.00  0.00     0.159 HD
ATOM     27  OD1 ASN A 142      -7.288  15.269  65.223  1.00 51.97    -0.274 OA
ENDBRANCH  22  23
ENDBRANCH  21  22
END_RES ASN A 142
BEGIN_RES LEU A  27
REMARK  2 active torsions:
REMARK  status: ('A' for Active; 'I' for Inactive)
REMARK    9  A    between atoms: CA   and  CB  
REMARK   10  A    between atoms: CB   and  CG  
ROOT
ATOM     28  CA  LEU A  27     -11.471  23.771  64.549  1.00 37.04     0.177 C 
ENDROOT
BRANCH  28  29
ATOM     29  CB  LEU A  27     -12.225  22.902  65.570  1.00 37.70     0.038 C 
BRANCH  29  30
ATOM     30  CG  LEU A  27     -12.570  23.421  66.966  1.00 36.32    -0.020 C 
ATOM     31  CD1 LEU A  27     -13.679  24.460  66.918  1.00 32.79     0.009 C 
ATOM     32  CD2 LEU A  27     -12.976  22.252  67.851  1.00 31.17     0.009 C 
ENDBRANCH  29  30
ENDBRANCH  28  29
END_RES LEU A  27
BEGIN_RES MET A  49
REMARK  3 active torsions:
REMARK  status: ('A' for Active; 'I' for Inactive)
REMARK   11  A    between atoms: CA   and  CB  
REMARK   12  A    between atoms: CB   and  CG  
REMARK   13  A    between atoms: CG   and  SD  
ROOT
ATOM     33  CA  MET A  49      -9.418  15.600  76.823  1.00 61.58     0.177 C 
ENDROOT
BRANCH  33  34
ATOM     34  CB  MET A  49      -8.930  15.410  75.386  1.00 62.15     0.045 C 
BRANCH  34  35
ATOM     35  CG  MET A  49      -9.409  16.493  74.432  1.00 60.24     0.076 C 
BRANCH  35  36
ATOM     36  SD  MET A  49      -8.166  16.974  73.218  1.00 77.15    -0.173 SA
ATOM     37  CE  MET A  49      -7.049  15.576  73.308  1.00 60.34     0.089 C 
ENDBRANCH  35  36
ENDBRANCH  34  35
ENDBRANCH  33  34
END_RES MET A  49
BEGIN_RES GLU A 166
REMARK  3 active torsions:
REMARK  status: ('A' for Active; 'I' for Inactive)
REMARK   14  A    between atoms: CA   and  CB  
REMARK   15  A    between atoms: CB   and  CG  
REMARK   16  A    between atoms: CG   and  CD  
ROOT
ATOM     38  CA  GLU A 166     -14.746   9.219  66.167  1.00 28.52     0.177 C 
ENDROOT
BRANCH  38  39
ATOM     39  CB  GLU A 166     -13.578   9.064  65.189  1.00 29.90     0.045 C 
BRANCH  39  40
ATOM     40  CG  GLU A 166     -13.609   7.817  64.326  1.00 36.08     0.116 C 
BRANCH  40  41
ATOM     41  CD  GLU A 166     -12.297   7.056  64.382  1.00 45.17     0.172 C 
ATOM     42  OE2 GLU A 166     -11.613   7.124  65.425  1.00 40.54    -0.648 OA
ATOM     43  OE1 GLU A 166     -11.954   6.380  63.388  1.00 50.70    -0.648 OA
ENDBRANCH  40  41
ENDBRANCH  39  40
ENDBRANCH  38  39
END_RES GLU A 166
BEGIN_RES HIS A 163
REMARK  2 active torsions:
REMARK  status: ('A' for Active; 'I' for Inactive)
REMARK   17  A    between atoms: CA   and  CB  
REMARK   18  A    between atoms: CB   and  CG  
ROOT
ATOM     44  CA  HIS A 163     -19.055  16.637  64.100  1.00 27.27     0.182 C 
ENDROOT
BRANCH  44  45
ATOM     45  CB  HIS A 163     -18.129  16.377  62.914  1.00 26.00     0.093 C 
BRANCH  45  46
ATOM     46  CG  HIS A 163     -17.096  15.329  63.183  1.00 26.66     0.028 A 
ATOM     47  ND1 HIS A 163     -15.751  15.618  63.272  1.00 26.97    -0.354 N 
ATOM     48  CE1 HIS A 163     -15.078  14.506  63.508  1.00 30.44     0.180 A 
ATOM     49  HD1 HIS A 163     -15.340  16.546  63.171  1.00  0.00     0.166 HD
ATOM     50  NE2 HIS A 163     -15.939  13.505  63.571  1.00 30.00    -0.360 N 
ATOM     51  CD2 HIS A 163     -17.207  13.993  63.370  1.00 29.24     0.114 A 
ATOM     52  HE2 HIS A 163     -15.699  12.528  63.741  1.00  0.00     0.166 HD
ENDBRANCH  45  46
ENDBRANCH  44  45
END_RES HIS A 163
BEGIN_RES HIS A 172
REMARK  2 active torsions:
REMARK  status: ('A' for Active; 'I' for Inactive)
REMARK   19  A    between atoms: CA   and  CB  
REMARK   20  A    between atoms: CB   and  CG  
ROOT
ATOM     53  CA  HIS A 172     -18.444   9.111  64.049  1.00 29.85     0.182 C 
ENDROOT
BRANCH  53  54
ATOM     54  CB  HIS A 172     -18.188  10.085  62.898  1.00 26.76     0.093 C 
BRANCH  54  55
ATOM     55  CG  HIS A 172     -16.875   9.869  62.214  1.00 28.76     0.028 A 
ATOM     56  CD2 HIS A 172     -15.619  10.237  62.559  1.00 29.36     0.114 A 
ATOM     57  NE2 HIS A 172     -14.775   9.773  61.578  1.00 33.77    -0.360 N 
ATOM     58  CE1 HIS A 172     -15.489   9.138  60.664  1.00 32.44     0.180 A 
ATOM     59  HE2 HIS A 172     -13.764   9.899  61.559  1.00  0.00     0.166 HD
ATOM     60  ND1 HIS A 172     -16.759   9.178  61.026  1.00 29.32    -0.354 N 
ATOM     61  HD1 HIS A 172     -17.534   8.764  60.507  1.00  0.00     0.166 HD
ENDBRANCH  54  55
ENDBRANCH  53  54
END_RES HIS A 172
BEGIN_RES THR A  26
REMARK  2 active torsions:
REMARK  status: ('A' for Active; 'I' for Inactive)
REMARK   21  A    between atoms: CA   and  CB  
REMARK   22  A    between atoms: CB   and  OG1 
ROOT
ATOM     62  CA  THR A  26      -8.224  25.031  66.060  1.00 43.98     0.205 C 
ENDROOT
BRANCH  62  63
ATOM     63  CB  THR A  26      -7.184  25.490  65.034  1.00 45.90     0.146 C 
ATOM     64  CG2 THR A  26      -7.853  26.013  63.761  1.00 47.20     0.042 C 
BRANCH  63  65
ATOM     65  OG1 THR A  26      -6.361  26.514  65.602  1.00 50.51    -0.393 OA
ATOM     66  HG1 THR A  26      -5.620  26.686  65.033  1.00  0.00     0.210 HD
ENDBRANCH  63  65
ENDBRANCH  62  63
END_RES THR A  26
ENDMDL
MODEL 9
REMARK VINA RESULT:      -9.0      2.063      5.890
REMARK  9 active torsions:
REMARK  status: ('A' for Active; 'I' for Inactive)
REMARK    1  A    between atoms: O1_2  and  C2_3 
REMARK    2  A    between atoms: N1_10  and  C9_11 
REMARK    3  A    between atoms: C11_15  and  O3_16 
REMARK    4  A    between atoms: O3_16  and  C12_17 
REMARK    5  A    between atoms: C12_17  and  N3_19 
REMARK    6  A    between atoms: N3_19  and  C13_20 
REMARK    7  A    between atoms: C13_20  and  C14_21 
REMARK    8  A    between atoms: C20_28  and  C21_29 
REMARK    9  A    between atoms: C21_29  and  C22_30 
ROOT
HETATM    1  C1  UNL     1      -4.824  20.816  71.545  1.00  0.00     0.210 C 
HETATM    2  O1  UNL     1      -6.191  20.539  71.629  1.00  0.00    -0.356 OA
ENDROOT
BRANCH   2   3
HETATM    3  C2  UNL     1      -6.698  19.258  71.470  1.00  0.00     0.069 A 
HETATM    4  C3  UNL     1      -7.864  19.050  70.788  1.00  0.00     0.039 A 
HETATM    5  C4  UNL     1      -8.373  17.778  70.627  1.00  0.00     0.034 A 
HETATM    6  C5  UNL     1      -7.740  16.655  71.141  1.00  0.00     0.052 A 
HETATM    7  C6  UNL     1      -6.555  16.918  71.827  1.00  0.00    -0.005 A 
HETATM    8  N1  UNL     1      -8.032  15.355  71.099  1.00  0.00    -0.286 N 
HETATM    9  C7  UNL     1      -6.097  15.696  72.227  1.00  0.00     0.031 A 
HETATM   10  C28 UNL     1      -6.026  18.188  72.000  1.00  0.00     0.050 A 
HETATM   11  C8  UNL     1      -6.985  14.769  71.788  1.00  0.00     0.102 A 
BRANCH   8  12
HETATM   12  C9  UNL     1      -9.070  14.627  70.508  1.00  0.00     0.261 C 
HETATM   13  O2  UNL     1      -9.044  13.331  70.966  1.00  0.00    -0.151 OA
HETATM   14  N2  UNL     1     -10.112  14.732  69.632  1.00  0.00    -0.337 N 
HETATM   15  C10 UNL     1     -10.861  15.624  68.794  1.00  0.00     0.159 C 
HETATM   16  C20 UNL     1     -10.839  13.427  69.251  1.00  0.00     0.094 C 
HETATM   17  C11 UNL     1     -10.640  14.930  67.463  1.00  0.00     0.153 C 
HETATM   18  C19 UNL     1     -11.230  13.581  67.827  1.00  0.00     0.060 C 
BRANCH  17  19
HETATM   19  O3  UNL     1     -11.132  15.550  66.363  1.00  0.00    -0.297 OA
BRANCH  19  20
HETATM   20  C12 UNL     1     -10.555  16.577  65.636  1.00  0.00     0.361 C 
HETATM   21  O4  UNL     1     -11.122  16.814  64.544  1.00  0.00    -0.238 OA
BRANCH  20  22
HETATM   22  N3  UNL     1      -9.442  17.321  66.018  1.00  0.00    -0.331 N 
HETATM   23  H11 UNL     1      -8.504  16.820  65.919  1.00  0.00     0.165 HD
BRANCH  22  24
HETATM   24  C13 UNL     1      -9.401  18.641  66.513  1.00  0.00     0.184 C 
BRANCH  24  25
HETATM   25  C14 UNL     1      -8.105  19.130  67.013  1.00  0.00     0.051 A 
HETATM   26  C15 UNL     1      -7.135  18.148  67.186  1.00  0.00     0.029 A 
HETATM   27  C16 UNL     1      -5.886  18.438  67.640  1.00  0.00     0.003 A 
HETATM   28  C17 UNL     1      -5.600  19.753  67.929  1.00  0.00     0.019 A 
HETATM   29  C18 UNL     1      -6.578  20.705  67.748  1.00  0.00     0.117 A 
HETATM   30  N4  UNL     1      -7.796  20.379  67.300  1.00  0.00    -0.264 NA
ENDBRANCH  24  25
ENDBRANCH  22  24
ENDBRANCH  20  22
ENDBRANCH  19  20
ENDBRANCH  17  19
BRANCH  16  31
HETATM   31  C21 UNL     1     -11.968  13.170  70.159  1.00  0.00     0.064 C 
BRANCH  31  32
HETATM   32  C22 UNL     1     -12.095  11.752  70.515  1.00  0.00    -0.056 A 
HETATM   33  C23 UNL     1     -11.352  10.788  69.909  1.00  0.00     0.007 A 
HETATM   34  C24 UNL     1     -11.474   9.458  70.277  1.00  0.00     0.001 A 
HETATM   35  C25 UNL     1     -12.366   9.119  71.275  1.00  0.00     0.000 A 
HETATM   36  C26 UNL     1     -13.116  10.083  71.889  1.00  0.00     0.001 A 
HETATM   37  C27 UNL     1     -12.986  11.415  71.510  1.00  0.00     0.007 A 
ENDBRANCH  31  32
ENDBRANCH  16  31
ENDBRANCH   8  12
ENDBRANCH   2   3
TORSDOF 7
BEGIN_RES HIS A  41
REMARK  2 active torsions:
REMARK  status: ('A' for Active; 'I' for Inactive)
REMARK    1  A    between atoms: CA   and  CB  
REMARK    2  A    between atoms: CB   and  CG  
ROOT
ATOM      1  CA  HIS A  41     -13.820  21.037  73.265  1.00 38.89     0.182 C 
ENDROOT
BRANCH   1   2
ATOM      2  CB  HIS A  41     -13.705  19.545  72.937  1.00 42.38     0.093 C 
BRANCH   2   3
ATOM      3  CG  HIS A  41     -14.086  19.199  71.532  1.00 37.90     0.028 A 
ATOM      4  CD2 HIS A  41     -13.498  19.493  70.348  1.00 37.33     0.114 A 
ATOM      5  NE2 HIS A  41     -14.265  18.921  69.363  1.00 41.88    -0.360 N 
ATOM      6  CE1 HIS A  41     -15.285  18.294  69.922  1.00 41.55     0.180 A 
ATOM      7  HE2 HIS A  41     -14.077  18.973  68.361  1.00  0.00     0.166 HD
ATOM      8  ND1 HIS A  41     -15.199  18.444  71.231  1.00 36.57    -0.354 N 
ATOM      9  HD1 HIS A  41     -15.854  18.061  71.912  1.00  0.00     0.166 HD
ENDBRANCH   2   3
ENDBRANCH   1   2
END_RES HIS A  41
BEGIN_RES CYS A 145
REMARK  1 active torsions:
REMARK  status: ('A' for Active; 'I' for Inactive)
REMARK    3  A    between atoms: CA   and  CB  
ROOT
ATOM     10  CA  CYS A 145     -14.607  19.162  64.101  1.00 29.71     0.186 C 
ENDROOT
BRANCH  10  11
ATOM     11  CB  CYS A 145     -14.100  19.110  65.541  1.00 31.75     0.120 C 
ATOM     12  SG  CYS A 145     -14.065  17.448  66.236  1.00 39.68    -0.095 SA
ENDBRANCH  10  11
END_RES CYS A 145
BEGIN_RES GLN A 189
REMARK  3 active torsions:
REMARK  status: ('A' for Active; 'I' for Inactive)
REMARK    4  A    between atoms: CA   and  CB  
REMARK    5  A    between atoms: CB   and  CG  
REMARK    6  A    between atoms: CG   and  CD  
REMARK       I    between atoms: CD   and  NE2 
ROOT
ATOM     13  CA  GLN A 189     -11.641  10.633  75.105  1.00 38.41     0.177 C 
ENDROOT
BRANCH  13  14
ATOM     14  CB  GLN A 189     -10.259  11.109  74.679  1.00 37.59     0.044 C 
BRANCH  14  15
ATOM     15  CG  GLN A 189      -9.751  10.441  73.412  1.00 45.60     0.105 C 
BRANCH  15  16
ATOM     16  CD  GLN A 189      -8.390   9.799  73.593  1.00 47.27     0.215 C 
ATOM     17  NE2 GLN A 189      -8.309   8.827  74.495  1.00 44.45    -0.370 N 
ATOM     18 2HE2 GLN A 189      -9.110   8.518  75.045  1.00  0.00     0.159 HD
ATOM     19 1HE2 GLN A 189      -7.393   8.395  74.617  1.00  0.00     0.159 HD
ATOM     20  OE1 GLN A 189      -7.423  10.172  72.929  1.00 41.09    -0.274 OA
ENDBRANCH  15  16
ENDBRANCH  14  15
ENDBRANCH  13  14
END_RES GLN A 189
BEGIN_RES ASN A 142
REMARK  2 active torsions:
REMARK  status: ('A' for Active; 'I' for Inactive)
REMARK    7  A    between atoms: CA   and  CB  
REMARK    8  A    between atoms: CB   and  CG  
REMARK       I    between atoms: CG   and  ND2 
ROOT
ATOM     21  CA  ASN A 142      -7.978  15.712  62.559  1.00 43.18     0.185 C 
ENDROOT
BRANCH  21  22
ATOM     22  CB  ASN A 142      -6.512  15.609  62.983  1.00 38.76     0.137 C 
BRANCH  22  23
ATOM     23  CG  ASN A 142      -6.344  15.491  64.486  1.00 50.71     0.217 C 
ATOM     24  ND2 ASN A 142      -5.122  15.699  64.962  1.00 55.08    -0.370 N 
ATOM     25 2HD2 ASN A 142      -4.329  15.926  64.361  1.00  0.00     0.159 HD
ATOM     26 1HD2 ASN A 142      -5.008  15.619  65.973  1.00  0.00     0.159 HD
ATOM     27  OD1 ASN A 142      -7.300  15.217  65.211  1.00 51.97    -0.274 OA
ENDBRANCH  22  23
ENDBRANCH  21  22
END_RES ASN A 142
BEGIN_RES LEU A  27
REMARK  2 active torsions:
REMARK  status: ('A' for Active; 'I' for Inactive)
REMARK    9  A    between atoms: CA   and  CB  
REMARK   10  A    between atoms: CB   and  CG  
ROOT
ATOM     28  CA  LEU A  27     -11.471  23.771  64.549  1.00 37.04     0.177 C 
ENDROOT
BRANCH  28  29
ATOM     29  CB  LEU A  27     -12.225  22.902  65.570  1.00 37.70     0.038 C 
BRANCH  29  30
ATOM     30  CG  LEU A  27     -12.589  23.429  66.958  1.00 36.32    -0.020 C 
ATOM     31  CD1 LEU A  27     -13.735  24.425  66.896  1.00 32.79     0.009 C 
ATOM     32  CD2 LEU A  27     -12.951  22.259  67.861  1.00 31.17     0.009 C 
ENDBRANCH  29  30
ENDBRANCH  28  29
END_RES LEU A  27
BEGIN_RES MET A  49
REMARK  3 active torsions:
REMARK  status: ('A' for Active; 'I' for Inactive)
REMARK   11  A    between atoms: CA   and  CB  
REMARK   12  A    between atoms: CB   and  CG  
REMARK   13  A    between atoms: CG   and  SD  
ROOT
ATOM     33  CA  MET A  49      -9.418  15.600  76.823  1.00 61.58     0.177 C 
ENDROOT
BRANCH  33  34
ATOM     34  CB  MET A  49      -8.930  15.410  75.386  1.00 62.15     0.045 C 
BRANCH  34  35
ATOM     35  CG  MET A  49      -9.851  16.025  74.344  1.00 60.24     0.076 C 
BRANCH  35  36
ATOM     36  SD  MET A  49     -11.050  14.858  73.674  1.00 77.15    -0.173 SA
ATOM     37  CE  MET A  49     -12.585  15.706  74.042  1.00 60.34     0.089 C 
ENDBRANCH  35  36
ENDBRANCH  34  35
ENDBRANCH  33  34
END_RES MET A  49
BEGIN_RES GLU A 166
REMARK  3 active torsions:
REMARK  status: ('A' for Active; 'I' for Inactive)
REMARK   14  A    between atoms: CA   and  CB  
REMARK   15  A    between atoms: CB   and  CG  
REMARK   16  A    between atoms: CG   and  CD  
ROOT
ATOM     38  CA  GLU A 166     -14.746   9.219  66.167  1.00 28.52     0.177 C 
ENDROOT
BRANCH  38  39
ATOM     39  CB  GLU A 166     -13.578   9.064  65.189  1.00 29.90     0.045 C 
BRANCH  39  40
ATOM     40  CG  GLU A 166     -12.420  10.021  65.397  1.00 36.08     0.116 C 
BRANCH  40  41
ATOM     41  CD  GLU A 166     -12.487  11.207  64.452  1.00 45.17     0.172 C 
ATOM     42  OE2 GLU A 166     -12.774  12.328  64.924  1.00 40.54    -0.648 OA
ATOM     43  OE1 GLU A 166     -12.242  11.022  63.241  1.00 50.70    -0.648 OA
ENDBRANCH  40  41
ENDBRANCH  39  40
ENDBRANCH  38  39
END_RES GLU A 166
BEGIN_RES HIS A 163
REMARK  2 active torsions:
REMARK  status: ('A' for Active; 'I' for Inactive)
REMARK   17  A    between atoms: CA   and  CB  
REMARK   18  A    between atoms: CB   and  CG  
ROOT
ATOM     44  CA  HIS A 163     -19.055  16.637  64.100  1.00 27.27     0.182 C 
ENDROOT
BRANCH  44  45
ATOM     45  CB  HIS A 163     -18.129  16.377  62.914  1.00 26.00     0.093 C 
BRANCH  45  46
ATOM     46  CG  HIS A 163     -17.100  15.325  63.181  1.00 26.66     0.028 A 
ATOM     47  ND1 HIS A 163     -15.751  15.603  63.238  1.00 26.97    -0.354 N 
ATOM     48  CE1 HIS A 163     -15.084  14.489  63.480  1.00 30.44     0.180 A 
ATOM     49  HD1 HIS A 163     -15.333  16.525  63.112  1.00  0.00     0.166 HD
ATOM     50  NE2 HIS A 163     -15.952  13.497  63.578  1.00 30.00    -0.360 N 
ATOM     51  CD2 HIS A 163     -17.219  13.993  63.394  1.00 29.24     0.114 A 
ATOM     52  HE2 HIS A 163     -15.718  12.521  63.760  1.00  0.00     0.166 HD
ENDBRANCH  45  46
ENDBRANCH  44  45
END_RES HIS A 163
BEGIN_RES HIS A 172
REMARK  2 active torsions:
REMARK  status: ('A' for Active; 'I' for Inactive)
REMARK   19  A    between atoms: CA   and  CB  
REMARK   20  A    between atoms: CB   and  CG  
ROOT
ATOM     53  CA  HIS A 172     -18.444   9.111  64.049  1.00 29.85     0.182 C 
ENDROOT
BRANCH  53  54
ATOM     54  CB  HIS A 172     -18.188  10.085  62.898  1.00 26.76     0.093 C 
BRANCH  54  55
ATOM     55  CG  HIS A 172     -16.863   9.887  62.231  1.00 28.76     0.028 A 
ATOM     56  CD2 HIS A 172     -15.609  10.213  62.625  1.00 29.36     0.114 A 
ATOM     57  NE2 HIS A 172     -14.751   9.793  61.637  1.00 33.77    -0.360 N 
ATOM     58  CE1 HIS A 172     -15.453   9.223  60.673  1.00 32.44     0.180 A 
ATOM     59  HE2 HIS A 172     -13.738   9.903  61.647  1.00  0.00     0.166 HD
ATOM     60  ND1 HIS A 172     -16.731   9.263  61.009  1.00 29.32    -0.354 N 
ATOM     61  HD1 HIS A 172     -17.500   8.891  60.450  1.00  0.00     0.166 HD
ENDBRANCH  54  55
ENDBRANCH  53  54
END_RES HIS A 172
BEGIN_RES THR A  26
REMARK  2 active torsions:
REMARK  status: ('A' for Active; 'I' for Inactive)
REMARK   21  A    between atoms: CA   and  CB  
REMARK   22  A    between atoms: CB   and  OG1 
ROOT
ATOM     62  CA  THR A  26      -8.224  25.031  66.060  1.00 43.98     0.205 C 
ENDROOT
BRANCH  62  63
ATOM     63  CB  THR A  26      -7.184  25.490  65.034  1.00 45.90     0.146 C 
ATOM     64  CG2 THR A  26      -7.853  26.064  63.783  1.00 47.20     0.042 C 
BRANCH  63  65
ATOM     65  OG1 THR A  26      -6.328  26.477  65.619  1.00 50.51    -0.393 OA
ATOM     66  HG1 THR A  26      -5.524  26.069  65.920  1.00  0.00     0.210 HD
ENDBRANCH  63  65
ENDBRANCH  62  63
END_RES THR A  26
ENDMDL
