MODEL 1
REMARK VINA RESULT:      -6.7      0.000      0.000
REMARK  6 active torsions:
REMARK  status: ('A' for Active; 'I' for Inactive)
REMARK    1  A    between atoms: C1_2  and  N1_3 
REMARK    2  A    between atoms: C1_2  and  N2_10 
REMARK    3  A    between atoms: N1_3  and  C2_4 
REMARK    4  A    between atoms: C5_8  and  O2_9 
REMARK    5  A    between atoms: C9_15  and  C10_16 
REMARK    6  A    between atoms: C10_16  and  C11_17 
ROOT
HETATM    1  O1  UNL     1     -10.529  18.608  65.585  1.00  0.00    -0.247 OA
HETATM    2  C1  UNL     1      -9.791  17.992  66.444  1.00  0.00     0.319 C 
ENDROOT
BRANCH   2   3
HETATM    3  N1  UNL     1      -9.521  16.615  66.293  1.00  0.00    -0.335 N 
HETATM    4  H1  UNL     1      -8.558  16.303  66.088  1.00  0.00     0.164 HD
BRANCH   3   5
HETATM    5  C2  UNL     1     -10.525  15.584  66.409  1.00  0.00     0.125 C 
HETATM    6  C3  UNL     1     -10.014  14.515  67.294  1.00  0.00     0.101 C 
HETATM    7  S1  UNL     1      -9.748  13.060  66.209  1.00  0.00    -0.164 SA
HETATM    8  C4  UNL     1     -10.114  13.941  64.646  1.00  0.00     0.107 C 
HETATM    9  C5  UNL     1     -11.006  15.040  65.129  1.00  0.00     0.151 C 
BRANCH   9  10
HETATM   10  O2  UNL     1     -11.085  15.991  64.121  1.00  0.00    -0.393 OA
HETATM   11  H8  UNL     1     -11.099  16.917  64.526  1.00  0.00     0.210 HD
ENDBRANCH   9  10
ENDBRANCH   3   5
ENDBRANCH   2   3
BRANCH   2  12
HETATM   12  N2  UNL     1      -9.291  18.766  67.508  1.00  0.00    -0.325 N 
HETATM   13  C6  UNL     1      -9.049  20.181  67.443  1.00  0.00     0.154 C 
HETATM   14  C7  UNL     1      -7.524  20.344  67.539  1.00  0.00     0.187 C 
HETATM   15  O3  UNL     1      -7.014  19.521  68.514  1.00  0.00    -0.387 OA
HETATM   16  C8  UNL     1      -7.961  19.090  69.442  1.00  0.00     0.193 C 
HETATM   17  C9  UNL     1      -8.969  18.148  68.804  1.00  0.00     0.117 C 
BRANCH  17  18
HETATM   18  C10 UNL     1     -10.209  18.153  69.641  1.00  0.00     0.066 C 
BRANCH  18  19
HETATM   19  C11 UNL     1     -10.594  16.797  70.095  1.00  0.00    -0.056 A 
HETATM   20  C12 UNL     1     -11.913  16.356  69.935  1.00  0.00     0.007 A 
HETATM   21  C13 UNL     1     -12.331  15.109  70.339  1.00  0.00     0.001 A 
HETATM   22  C14 UNL     1     -11.386  14.289  70.920  1.00  0.00     0.000 A 
HETATM   23  C15 UNL     1     -10.082  14.689  71.093  1.00  0.00     0.001 A 
HETATM   24  C16 UNL     1      -9.704  15.932  70.680  1.00  0.00     0.007 A 
ENDBRANCH  18  19
ENDBRANCH  17  18
ENDBRANCH   2  12
TORSDOF 4
BEGIN_RES HIS A  41
REMARK  2 active torsions:
REMARK  status: ('A' for Active; 'I' for Inactive)
REMARK    1  A    between atoms: CA   and  CB  
REMARK    2  A    between atoms: CB   and  CG  
ROOT
ATOM      1  CA  HIS A  41     -13.820  21.037  73.265  1.00 38.89     0.182 C 
ENDROOT
BRANCH   1   2
ATOM      2  CB  HIS A  41     -13.705  19.545  72.937  1.00 42.38     0.093 C 
BRANCH   2   3
ATOM      3  CG  HIS A  41     -14.111  19.196  71.540  1.00 37.90     0.028 A 
ATOM      4  CD2 HIS A  41     -13.608  19.577  70.342  1.00 37.33     0.114 A 
ATOM      5  NE2 HIS A  41     -14.355  18.953  69.372  1.00 41.88    -0.360 N 
ATOM      6  CE1 HIS A  41     -15.280  18.211  69.955  1.00 41.55     0.180 A 
ATOM      7  HE2 HIS A  41     -14.218  19.048  68.366  1.00  0.00     0.166 HD
ATOM      8  ND1 HIS A  41     -15.153  18.337  71.263  1.00 36.57    -0.354 N 
ATOM      9  HD1 HIS A  41     -15.735  17.872  71.960  1.00  0.00     0.166 HD
ENDBRANCH   2   3
ENDBRANCH   1   2
END_RES HIS A  41
BEGIN_RES CYS A 145
REMARK  1 active torsions:
REMARK  status: ('A' for Active; 'I' for Inactive)
REMARK    3  A    between atoms: CA   and  CB  
ROOT
ATOM     10  CA  CYS A 145     -14.607  19.162  64.101  1.00 29.71     0.186 C 
ENDROOT
BRANCH  10  11
ATOM     11  CB  CYS A 145     -14.100  19.110  65.541  1.00 31.75     0.120 C 
ATOM     12  SG  CYS A 145     -13.828  17.437  66.152  1.00 39.68    -0.095 SA
ENDBRANCH  10  11
END_RES CYS A 145
BEGIN_RES GLN A 189
REMARK  3 active torsions:
REMARK  status: ('A' for Active; 'I' for Inactive)
REMARK    4  A    between atoms: CA   and  CB  
REMARK    5  A    between atoms: CB   and  CG  
REMARK    6  A    between atoms: CG   and  CD  
REMARK       I    between atoms: CD   and  NE2 
ROOT
ATOM     13  CA  GLN A 189     -11.641  10.633  75.105  1.00 38.41     0.177 C 
ENDROOT
BRANCH  13  14
ATOM     14  CB  GLN A 189     -10.259  11.109  74.679  1.00 37.59     0.044 C 
BRANCH  14  15
ATOM     15  CG  GLN A 189     -10.152  11.408  73.193  1.00 45.60     0.105 C 
BRANCH  15  16
ATOM     16  CD  GLN A 189     -10.805  10.346  72.332  1.00 47.27     0.215 C 
ATOM     17  NE2 GLN A 189     -11.875  10.720  71.638  1.00 44.45    -0.370 N 
ATOM     18 2HE2 GLN A 189     -12.249  11.668  71.672  1.00  0.00     0.159 HD
ATOM     19 1HE2 GLN A 189     -12.315  10.005  71.059  1.00  0.00     0.159 HD
ATOM     20  OE1 GLN A 189     -10.353   9.201  72.291  1.00 41.09    -0.274 OA
ENDBRANCH  15  16
ENDBRANCH  14  15
ENDBRANCH  13  14
END_RES GLN A 189
BEGIN_RES ASN A 142
REMARK  2 active torsions:
REMARK  status: ('A' for Active; 'I' for Inactive)
REMARK    7  A    between atoms: CA   and  CB  
REMARK    8  A    between atoms: CB   and  CG  
REMARK       I    between atoms: CG   and  ND2 
ROOT
ATOM     21  CA  ASN A 142      -7.978  15.712  62.559  1.00 43.18     0.185 C 
ENDROOT
BRANCH  21  22
ATOM     22  CB  ASN A 142      -6.512  15.609  62.983  1.00 38.76     0.137 C 
BRANCH  22  23
ATOM     23  CG  ASN A 142      -6.348  15.130  64.413  1.00 50.71     0.217 C 
ATOM     24  ND2 ASN A 142      -5.441  14.183  64.619  1.00 55.08    -0.370 N 
ATOM     25 2HD2 ASN A 142      -4.878  13.788  63.865  1.00  0.00     0.159 HD
ATOM     26 1HD2 ASN A 142      -5.330  13.860  65.581  1.00  0.00     0.159 HD
ATOM     27  OD1 ASN A 142      -7.027  15.606  65.322  1.00 51.97    -0.274 OA
ENDBRANCH  22  23
ENDBRANCH  21  22
END_RES ASN A 142
BEGIN_RES LEU A  27
REMARK  2 active torsions:
REMARK  status: ('A' for Active; 'I' for Inactive)
REMARK    9  A    between atoms: CA   and  CB  
REMARK   10  A    between atoms: CB   and  CG  
ROOT
ATOM     28  CA  LEU A  27     -11.471  23.771  64.549  1.00 37.04     0.177 C 
ENDROOT
BRANCH  28  29
ATOM     29  CB  LEU A  27     -12.225  22.902  65.570  1.00 37.70     0.038 C 
BRANCH  29  30
ATOM     30  CG  LEU A  27     -12.577  23.424  66.963  1.00 36.32    -0.020 C 
ATOM     31  CD1 LEU A  27     -13.781  24.351  66.925  1.00 32.79     0.009 C 
ATOM     32  CD2 LEU A  27     -12.844  22.247  67.889  1.00 31.17     0.009 C 
ENDBRANCH  29  30
ENDBRANCH  28  29
END_RES LEU A  27
BEGIN_RES MET A  49
REMARK  3 active torsions:
REMARK  status: ('A' for Active; 'I' for Inactive)
REMARK   11  A    between atoms: CA   and  CB  
REMARK   12  A    between atoms: CB   and  CG  
REMARK   13  A    between atoms: CG   and  SD  
ROOT
ATOM     33  CA  MET A  49      -9.418  15.600  76.823  1.00 61.58     0.177 C 
ENDROOT
BRANCH  33  34
ATOM     34  CB  MET A  49      -8.930  15.410  75.386  1.00 62.15     0.045 C 
BRANCH  34  35
ATOM     35  CG  MET A  49      -9.652  16.288  74.376  1.00 60.24     0.076 C 
BRANCH  35  36
ATOM     36  SD  MET A  49     -11.241  16.900  74.970  1.00 77.15    -0.173 SA
ATOM     37  CE  MET A  49     -12.346  15.646  74.322  1.00 60.34     0.089 C 
ENDBRANCH  35  36
ENDBRANCH  34  35
ENDBRANCH  33  34
END_RES MET A  49
BEGIN_RES GLU A 166
REMARK  3 active torsions:
REMARK  status: ('A' for Active; 'I' for Inactive)
REMARK   14  A    between atoms: CA   and  CB  
REMARK   15  A    between atoms: CB   and  CG  
REMARK   16  A    between atoms: CG   and  CD  
ROOT
ATOM     38  CA  GLU A 166     -14.746   9.219  66.167  1.00 28.52     0.177 C 
ENDROOT
BRANCH  38  39
ATOM     39  CB  GLU A 166     -13.578   9.064  65.189  1.00 29.90     0.045 C 
BRANCH  39  40
ATOM     40  CG  GLU A 166     -12.425  10.029  65.389  1.00 36.08     0.116 C 
BRANCH  40  41
ATOM     41  CD  GLU A 166     -12.375  11.087  64.302  1.00 45.17     0.172 C 
ATOM     42  OE2 GLU A 166     -13.144  12.068  64.391  1.00 40.54    -0.648 OA
ATOM     43  OE1 GLU A 166     -11.560  10.945  63.365  1.00 50.70    -0.648 OA
ENDBRANCH  40  41
ENDBRANCH  39  40
ENDBRANCH  38  39
END_RES GLU A 166
BEGIN_RES HIS A 163
REMARK  2 active torsions:
REMARK  status: ('A' for Active; 'I' for Inactive)
REMARK   17  A    between atoms: CA   and  CB  
REMARK   18  A    between atoms: CB   and  CG  
ROOT
ATOM     44  CA  HIS A 163     -19.055  16.637  64.100  1.00 27.27     0.182 C 
ENDROOT
BRANCH  44  45
ATOM     45  CB  HIS A 163     -18.129  16.377  62.914  1.00 26.00     0.093 C 
BRANCH  45  46
ATOM     46  CG  HIS A 163     -17.082  15.344  63.190  1.00 26.66     0.028 A 
ATOM     47  ND1 HIS A 163     -15.740  15.648  63.255  1.00 26.97    -0.354 N 
ATOM     48  CE1 HIS A 163     -15.053  14.547  63.505  1.00 30.44     0.180 A 
ATOM     49  HD1 HIS A 163     -15.338  16.577  63.130  1.00  0.00     0.166 HD
ATOM     50  NE2 HIS A 163     -15.903  13.540  63.599  1.00 30.00    -0.360 N 
ATOM     51  CD2 HIS A 163     -17.178  14.011  63.406  1.00 29.24     0.114 A 
ATOM     52  HE2 HIS A 163     -15.652  12.569  63.785  1.00  0.00     0.166 HD
ENDBRANCH  45  46
ENDBRANCH  44  45
END_RES HIS A 163
BEGIN_RES HIS A 172
REMARK  2 active torsions:
REMARK  status: ('A' for Active; 'I' for Inactive)
REMARK   19  A    between atoms: CA   and  CB  
REMARK   20  A    between atoms: CB   and  CG  
ROOT
ATOM     53  CA  HIS A 172     -18.444   9.111  64.049  1.00 29.85     0.182 C 
ENDROOT
BRANCH  53  54
ATOM     54  CB  HIS A 172     -18.188  10.085  62.898  1.00 26.76     0.093 C 
BRANCH  54  55
ATOM     55  CG  HIS A 172     -16.867   9.881  62.225  1.00 28.76     0.028 A 
ATOM     56  CD2 HIS A 172     -15.610  10.204  62.613  1.00 29.36     0.114 A 
ATOM     57  NE2 HIS A 172     -14.758   9.778  61.622  1.00 33.77    -0.360 N 
ATOM     58  CE1 HIS A 172     -15.467   9.209  60.662  1.00 32.44     0.180 A 
ATOM     59  HE2 HIS A 172     -13.744   9.885  61.627  1.00  0.00     0.166 HD
ATOM     60  ND1 HIS A 172     -16.743   9.254  61.003  1.00 29.32    -0.354 N 
ATOM     61  HD1 HIS A 172     -17.515   8.884  60.449  1.00  0.00     0.166 HD
ENDBRANCH  54  55
ENDBRANCH  53  54
END_RES HIS A 172
BEGIN_RES THR A  26
REMARK  2 active torsions:
REMARK  status: ('A' for Active; 'I' for Inactive)
REMARK   21  A    between atoms: CA   and  CB  
REMARK   22  A    between atoms: CB   and  OG1 
ROOT
ATOM     62  CA  THR A  26      -8.224  25.031  66.060  1.00 43.98     0.205 C 
ENDROOT
BRANCH  62  63
ATOM     63  CB  THR A  26      -7.184  25.490  65.034  1.00 45.90     0.146 C 
ATOM     64  CG2 THR A  26      -7.853  26.089  63.795  1.00 47.20     0.042 C 
BRANCH  63  65
ATOM     65  OG1 THR A  26      -6.312  26.458  65.627  1.00 50.51    -0.393 OA
ATOM     66  HG1 THR A  26      -5.413  26.154  65.579  1.00  0.00     0.210 HD
ENDBRANCH  63  65
ENDBRANCH  62  63
END_RES THR A  26
ENDMDL
MODEL 2
REMARK VINA RESULT:      -6.7      1.632      2.008
REMARK  6 active torsions:
REMARK  status: ('A' for Active; 'I' for Inactive)
REMARK    1  A    between atoms: C1_2  and  N1_3 
REMARK    2  A    between atoms: C1_2  and  N2_10 
REMARK    3  A    between atoms: N1_3  and  C2_4 
REMARK    4  A    between atoms: C5_8  and  O2_9 
REMARK    5  A    between atoms: C9_15  and  C10_16 
REMARK    6  A    between atoms: C10_16  and  C11_17 
ROOT
HETATM    1  O1  UNL     1      -9.500  17.291  66.539  1.00  0.00    -0.247 OA
HETATM    2  C1  UNL     1     -10.052  16.560  67.447  1.00  0.00     0.319 C 
ENDROOT
BRANCH   2   3
HETATM    3  N1  UNL     1     -10.243  15.179  67.230  1.00  0.00    -0.335 N 
HETATM    4  H1  UNL     1      -9.544  14.505  67.583  1.00  0.00     0.164 HD
BRANCH   3   5
HETATM    5  C2  UNL     1     -11.379  14.627  66.530  1.00  0.00     0.125 C 
HETATM    6  C3  UNL     1     -11.720  13.318  67.127  1.00  0.00     0.101 C 
HETATM    7  S1  UNL     1     -11.302  12.068  65.851  1.00  0.00    -0.164 SA
HETATM    8  C4  UNL     1     -10.528  13.256  64.693  1.00  0.00     0.107 C 
HETATM    9  C5  UNL     1     -11.218  14.528  65.070  1.00  0.00     0.151 C 
BRANCH   9  10
HETATM   10  O2  UNL     1     -10.494  15.577  64.523  1.00  0.00    -0.393 OA
HETATM   11  H8  UNL     1     -10.977  15.940  63.712  1.00  0.00     0.210 HD
ENDBRANCH   9  10
ENDBRANCH   3   5
ENDBRANCH   2   3
BRANCH   2  12
HETATM   12  N2  UNL     1     -10.437  17.217  68.631  1.00  0.00    -0.325 N 
HETATM   13  C6  UNL     1     -10.518  18.644  68.781  1.00  0.00     0.154 C 
HETATM   14  C7  UNL     1      -9.405  19.019  69.772  1.00  0.00     0.187 C 
HETATM   15  O3  UNL     1      -9.381  18.136  70.823  1.00  0.00    -0.387 OA
HETATM   16  C8  UNL     1     -10.566  17.421  70.988  1.00  0.00     0.193 C 
HETATM   17  C9  UNL     1     -10.790  16.453  69.837  1.00  0.00     0.117 C 
BRANCH  17  18
HETATM   18  C10 UNL     1     -12.250  16.132  69.772  1.00  0.00     0.066 C 
BRANCH  18  19
HETATM   19  C11 UNL     1     -12.618  14.982  70.629  1.00  0.00    -0.056 A 
HETATM   20  C12 UNL     1     -13.850  14.975  71.296  1.00  0.00     0.007 A 
HETATM   21  C13 UNL     1     -14.246  13.937  72.107  1.00  0.00     0.001 A 
HETATM   22  C14 UNL     1     -13.371  12.880  72.245  1.00  0.00     0.000 A 
HETATM   23  C15 UNL     1     -12.155  12.853  71.606  1.00  0.00     0.001 A 
HETATM   24  C16 UNL     1     -11.795  13.900  70.809  1.00  0.00     0.007 A 
ENDBRANCH  18  19
ENDBRANCH  17  18
ENDBRANCH   2  12
TORSDOF 4
BEGIN_RES HIS A  41
REMARK  2 active torsions:
REMARK  status: ('A' for Active; 'I' for Inactive)
REMARK    1  A    between atoms: CA   and  CB  
REMARK    2  A    between atoms: CB   and  CG  
ROOT
ATOM      1  CA  HIS A  41     -13.820  21.037  73.265  1.00 38.89     0.182 C 
ENDROOT
BRANCH   1   2
ATOM      2  CB  HIS A  41     -13.705  19.545  72.937  1.00 42.38     0.093 C 
BRANCH   2   3
ATOM      3  CG  HIS A  41     -14.129  19.193  71.546  1.00 37.90     0.028 A 
ATOM      4  CD2 HIS A  41     -13.623  19.546  70.341  1.00 37.33     0.114 A 
ATOM      5  NE2 HIS A  41     -14.394  18.934  69.383  1.00 41.88    -0.360 N 
ATOM      6  CE1 HIS A  41     -15.337  18.226  69.979  1.00 41.55     0.180 A 
ATOM      7  HE2 HIS A  41     -14.260  19.014  68.375  1.00  0.00     0.166 HD
ATOM      8  ND1 HIS A  41     -15.198  18.362  71.285  1.00 36.57    -0.354 N 
ATOM      9  HD1 HIS A  41     -15.789  17.922  71.990  1.00  0.00     0.166 HD
ENDBRANCH   2   3
ENDBRANCH   1   2
END_RES HIS A  41
BEGIN_RES CYS A 145
REMARK  1 active torsions:
REMARK  status: ('A' for Active; 'I' for Inactive)
REMARK    3  A    between atoms: CA   and  CB  
ROOT
ATOM     10  CA  CYS A 145     -14.607  19.162  64.101  1.00 29.71     0.186 C 
ENDROOT
BRANCH  10  11
ATOM     11  CB  CYS A 145     -14.100  19.110  65.541  1.00 31.75     0.120 C 
ATOM     12  SG  CYS A 145     -13.628  17.457  66.082  1.00 39.68    -0.095 SA
ENDBRANCH  10  11
END_RES CYS A 145
BEGIN_RES GLN A 189
REMARK  3 active torsions:
REMARK  status: ('A' for Active; 'I' for Inactive)
REMARK    4  A    between atoms: CA   and  CB  
REMARK    5  A    between atoms: CB   and  CG  
REMARK    6  A    between atoms: CG   and  CD  
REMARK       I    between atoms: CD   and  NE2 
ROOT
ATOM     13  CA  GLN A 189     -11.641  10.633  75.105  1.00 38.41     0.177 C 
ENDROOT
BRANCH  13  14
ATOM     14  CB  GLN A 189     -10.259  11.109  74.679  1.00 37.59     0.044 C 
BRANCH  14  15
ATOM     15  CG  GLN A 189      -9.820  10.566  73.329  1.00 45.60     0.105 C 
BRANCH  15  16
ATOM     16  CD  GLN A 189      -8.504   9.817  73.398  1.00 47.27     0.215 C 
ATOM     17  NE2 GLN A 189      -8.322   9.035  74.456  1.00 44.45    -0.370 N 
ATOM     18 2HE2 GLN A 189      -9.021   8.933  75.192  1.00  0.00     0.159 HD
ATOM     19 1HE2 GLN A 189      -7.437   8.531  74.503  1.00  0.00     0.159 HD
ATOM     20  OE1 GLN A 189      -7.660   9.941  72.510  1.00 41.09    -0.274 OA
ENDBRANCH  15  16
ENDBRANCH  14  15
ENDBRANCH  13  14
END_RES GLN A 189
BEGIN_RES ASN A 142
REMARK  2 active torsions:
REMARK  status: ('A' for Active; 'I' for Inactive)
REMARK    7  A    between atoms: CA   and  CB  
REMARK    8  A    between atoms: CB   and  CG  
REMARK       I    between atoms: CG   and  ND2 
ROOT
ATOM     21  CA  ASN A 142      -7.978  15.712  62.559  1.00 43.18     0.185 C 
ENDROOT
BRANCH  21  22
ATOM     22  CB  ASN A 142      -6.512  15.609  62.983  1.00 38.76     0.137 C 
BRANCH  22  23
ATOM     23  CG  ASN A 142      -6.347  15.417  64.479  1.00 50.71     0.217 C 
ATOM     24  ND2 ASN A 142      -7.464  15.322  65.190  1.00 55.08    -0.370 N 
ATOM     25 2HD2 ASN A 142      -8.391  15.375  64.766  1.00  0.00     0.159 HD
ATOM     26 1HD2 ASN A 142      -7.353  15.194  66.196  1.00  0.00     0.159 HD
ATOM     27  OD1 ASN A 142      -5.229  15.354  64.989  1.00 51.97    -0.274 OA
ENDBRANCH  22  23
ENDBRANCH  21  22
END_RES ASN A 142
BEGIN_RES LEU A  27
REMARK  2 active torsions:
REMARK  status: ('A' for Active; 'I' for Inactive)
REMARK    9  A    between atoms: CA   and  CB  
REMARK   10  A    between atoms: CB   and  CG  
ROOT
ATOM     28  CA  LEU A  27     -11.471  23.771  64.549  1.00 37.04     0.177 C 
ENDROOT
BRANCH  28  29
ATOM     29  CB  LEU A  27     -12.225  22.902  65.570  1.00 37.70     0.038 C 
BRANCH  29  30
ATOM     30  CG  LEU A  27     -12.586  23.427  66.960  1.00 36.32    -0.020 C 
ATOM     31  CD1 LEU A  27     -13.777  24.371  66.909  1.00 32.79     0.009 C 
ATOM     32  CD2 LEU A  27     -12.879  22.253  67.881  1.00 31.17     0.009 C 
ENDBRANCH  29  30
ENDBRANCH  28  29
END_RES LEU A  27
BEGIN_RES MET A  49
REMARK  3 active torsions:
REMARK  status: ('A' for Active; 'I' for Inactive)
REMARK   11  A    between atoms: CA   and  CB  
REMARK   12  A    between atoms: CB   and  CG  
REMARK   13  A    between atoms: CG   and  SD  
ROOT
ATOM     33  CA  MET A  49      -9.418  15.600  76.823  1.00 61.58     0.177 C 
ENDROOT
BRANCH  33  34
ATOM     34  CB  MET A  49      -8.930  15.410  75.386  1.00 62.15     0.045 C 
BRANCH  34  35
ATOM     35  CG  MET A  49      -9.557  16.379  74.397  1.00 60.24     0.076 C 
BRANCH  35  36
ATOM     36  SD  MET A  49     -11.142  17.037  74.950  1.00 77.15    -0.173 SA
ATOM     37  CE  MET A  49     -12.234  15.681  74.527  1.00 60.34     0.089 C 
ENDBRANCH  35  36
ENDBRANCH  34  35
ENDBRANCH  33  34
END_RES MET A  49
BEGIN_RES GLU A 166
REMARK  3 active torsions:
REMARK  status: ('A' for Active; 'I' for Inactive)
REMARK   14  A    between atoms: CA   and  CB  
REMARK   15  A    between atoms: CB   and  CG  
REMARK   16  A    between atoms: CG   and  CD  
ROOT
ATOM     38  CA  GLU A 166     -14.746   9.219  66.167  1.00 28.52     0.177 C 
ENDROOT
BRANCH  38  39
ATOM     39  CB  GLU A 166     -13.578   9.064  65.189  1.00 29.90     0.045 C 
BRANCH  39  40
ATOM     40  CG  GLU A 166     -13.591   7.800  64.351  1.00 36.08     0.116 C 
BRANCH  40  41
ATOM     41  CD  GLU A 166     -12.510   7.814  63.286  1.00 45.17     0.172 C 
ATOM     42  OE2 GLU A 166     -12.144   8.916  62.824  1.00 40.54    -0.648 OA
ATOM     43  OE1 GLU A 166     -12.017   6.726  62.918  1.00 50.70    -0.648 OA
ENDBRANCH  40  41
ENDBRANCH  39  40
ENDBRANCH  38  39
END_RES GLU A 166
BEGIN_RES HIS A 163
REMARK  2 active torsions:
REMARK  status: ('A' for Active; 'I' for Inactive)
REMARK   17  A    between atoms: CA   and  CB  
REMARK   18  A    between atoms: CB   and  CG  
ROOT
ATOM     44  CA  HIS A 163     -19.055  16.637  64.100  1.00 27.27     0.182 C 
ENDROOT
BRANCH  44  45
ATOM     45  CB  HIS A 163     -18.129  16.377  62.914  1.00 26.00     0.093 C 
BRANCH  45  46
ATOM     46  CG  HIS A 163     -17.100  15.324  63.181  1.00 26.66     0.028 A 
ATOM     47  ND1 HIS A 163     -15.752  15.603  63.244  1.00 26.97    -0.354 N 
ATOM     48  CE1 HIS A 163     -15.085  14.489  63.485  1.00 30.44     0.180 A 
ATOM     49  HD1 HIS A 163     -15.334  16.526  63.124  1.00  0.00     0.166 HD
ATOM     50  NE2 HIS A 163     -15.952  13.496  63.575  1.00 30.00    -0.360 N 
ATOM     51  CD2 HIS A 163     -17.219  13.992  63.387  1.00 29.24     0.114 A 
ATOM     52  HE2 HIS A 163     -15.718  12.519  63.754  1.00  0.00     0.166 HD
ENDBRANCH  45  46
ENDBRANCH  44  45
END_RES HIS A 163
BEGIN_RES HIS A 172
REMARK  2 active torsions:
REMARK  status: ('A' for Active; 'I' for Inactive)
REMARK   19  A    between atoms: CA   and  CB  
REMARK   20  A    between atoms: CB   and  CG  
ROOT
ATOM     53  CA  HIS A 172     -18.444   9.111  64.049  1.00 29.85     0.182 C 
ENDROOT
BRANCH  53  54
ATOM     54  CB  HIS A 172     -18.188  10.085  62.898  1.00 26.76     0.093 C 
BRANCH  54  55
ATOM     55  CG  HIS A 172     -16.875   9.868  62.213  1.00 28.76     0.028 A 
ATOM     56  CD2 HIS A 172     -15.619  10.235  62.558  1.00 29.36     0.114 A 
ATOM     57  NE2 HIS A 172     -14.776   9.771  61.576  1.00 33.77    -0.360 N 
ATOM     58  CE1 HIS A 172     -15.491   9.137  60.663  1.00 32.44     0.180 A 
ATOM     59  HE2 HIS A 172     -13.765   9.896  61.557  1.00  0.00     0.166 HD
ATOM     60  ND1 HIS A 172     -16.761   9.178  61.025  1.00 29.32    -0.354 N 
ATOM     61  HD1 HIS A 172     -17.536   8.764  60.506  1.00  0.00     0.166 HD
ENDBRANCH  54  55
ENDBRANCH  53  54
END_RES HIS A 172
BEGIN_RES THR A  26
REMARK  2 active torsions:
REMARK  status: ('A' for Active; 'I' for Inactive)
REMARK   21  A    between atoms: CA   and  CB  
REMARK   22  A    between atoms: CB   and  OG1 
ROOT
ATOM     62  CA  THR A  26      -8.224  25.031  66.060  1.00 43.98     0.205 C 
ENDROOT
BRANCH  62  63
ATOM     63  CB  THR A  26      -7.184  25.490  65.034  1.00 45.90     0.146 C 
ATOM     64  CG2 THR A  26      -7.853  26.091  63.796  1.00 47.20     0.042 C 
BRANCH  63  65
ATOM     65  OG1 THR A  26      -6.311  26.457  65.628  1.00 50.51    -0.393 OA
ATOM     66  HG1 THR A  26      -5.535  26.565  65.089  1.00  0.00     0.210 HD
ENDBRANCH  63  65
ENDBRANCH  62  63
END_RES THR A  26
ENDMDL
MODEL 3
REMARK VINA RESULT:      -6.6      1.821      3.453
REMARK  6 active torsions:
REMARK  status: ('A' for Active; 'I' for Inactive)
REMARK    1  A    between atoms: C1_2  and  N1_3 
REMARK    2  A    between atoms: C1_2  and  N2_10 
REMARK    3  A    between atoms: N1_3  and  C2_4 
REMARK    4  A    between atoms: C5_8  and  O2_9 
REMARK    5  A    between atoms: C9_15  and  C10_16 
REMARK    6  A    between atoms: C10_16  and  C11_17 
ROOT
HETATM    1  O1  UNL     1     -11.178  16.705  64.345  1.00  0.00    -0.247 OA
HETATM    2  C1  UNL     1     -10.799  16.263  65.496  1.00  0.00     0.319 C 
ENDROOT
BRANCH   2   3
HETATM    3  N1  UNL     1     -10.346  17.158  66.488  1.00  0.00    -0.335 N 
HETATM    4  H1  UNL     1     -10.850  17.221  67.388  1.00  0.00     0.164 HD
BRANCH   3   5
HETATM    5  C2  UNL     1      -9.195  18.016  66.329  1.00  0.00     0.125 C 
HETATM    6  C3  UNL     1      -8.226  17.721  67.406  1.00  0.00     0.101 C 
HETATM    7  S1  UNL     1      -8.219  19.204  68.485  1.00  0.00    -0.164 SA
HETATM    8  C4  UNL     1      -9.596  20.049  67.624  1.00  0.00     0.107 C 
HETATM    9  C5  UNL     1      -9.499  19.454  66.256  1.00  0.00     0.151 C 
BRANCH   9  10
HETATM   10  O2  UNL     1     -10.684  19.733  65.591  1.00  0.00    -0.393 OA
HETATM   11  H8  UNL     1     -10.568  20.556  65.016  1.00  0.00     0.210 HD
ENDBRANCH   9  10
ENDBRANCH   3   5
ENDBRANCH   2   3
BRANCH   2  12
HETATM   12  N2  UNL     1     -10.868  14.870  65.684  1.00  0.00    -0.325 N 
HETATM   13  C6  UNL     1     -10.229  13.901  64.837  1.00  0.00     0.154 C 
HETATM   14  C7  UNL     1     -11.372  13.150  64.134  1.00  0.00     0.187 C 
HETATM   15  O3  UNL     1     -12.369  12.850  65.028  1.00  0.00    -0.387 OA
HETATM   16  C8  UNL     1     -11.963  12.881  66.361  1.00  0.00     0.193 C 
HETATM   17  C9  UNL     1     -11.631  14.297  66.804  1.00  0.00     0.117 C 
BRANCH  17  18
HETATM   18  C10 UNL     1     -10.723  14.216  67.990  1.00  0.00     0.066 C 
BRANCH  18  19
HETATM   19  C11 UNL     1     -11.303  14.855  69.194  1.00  0.00    -0.056 A 
HETATM   20  C12 UNL     1     -10.715  16.012  69.721  1.00  0.00     0.007 A 
HETATM   21  C13 UNL     1     -11.207  16.648  70.837  1.00  0.00     0.001 A 
HETATM   22  C14 UNL     1     -12.322  16.097  71.433  1.00  0.00     0.000 A 
HETATM   23  C15 UNL     1     -12.924  14.964  70.943  1.00  0.00     0.001 A 
HETATM   24  C16 UNL     1     -12.410  14.359  69.834  1.00  0.00     0.007 A 
ENDBRANCH  18  19
ENDBRANCH  17  18
ENDBRANCH   2  12
TORSDOF 4
BEGIN_RES HIS A  41
REMARK  2 active torsions:
REMARK  status: ('A' for Active; 'I' for Inactive)
REMARK    1  A    between atoms: CA   and  CB  
REMARK    2  A    between atoms: CB   and  CG  
ROOT
ATOM      1  CA  HIS A  41     -13.820  21.037  73.265  1.00 38.89     0.182 C 
ENDROOT
BRANCH   1   2
ATOM      2  CB  HIS A  41     -13.705  19.545  72.937  1.00 42.38     0.093 C 
BRANCH   2   3
ATOM      3  CG  HIS A  41     -14.097  19.198  71.535  1.00 37.90     0.028 A 
ATOM      4  CD2 HIS A  41     -13.544  19.528  70.345  1.00 37.33     0.114 A 
ATOM      5  NE2 HIS A  41     -14.304  18.934  69.367  1.00 41.88    -0.360 N 
ATOM      6  CE1 HIS A  41     -15.286  18.259  69.937  1.00 41.55     0.180 A 
ATOM      7  HE2 HIS A  41     -14.137  19.004  68.363  1.00  0.00     0.166 HD
ATOM      8  ND1 HIS A  41     -15.183  18.399  71.246  1.00 36.57    -0.354 N 
ATOM      9  HD1 HIS A  41     -15.809  17.981  71.935  1.00  0.00     0.166 HD
ENDBRANCH   2   3
ENDBRANCH   1   2
END_RES HIS A  41
BEGIN_RES CYS A 145
REMARK  1 active torsions:
REMARK  status: ('A' for Active; 'I' for Inactive)
REMARK    3  A    between atoms: CA   and  CB  
ROOT
ATOM     10  CA  CYS A 145     -14.607  19.162  64.101  1.00 29.71     0.186 C 
ENDROOT
BRANCH  10  11
ATOM     11  CB  CYS A 145     -14.100  19.110  65.541  1.00 31.75     0.120 C 
ATOM     12  SG  CYS A 145     -14.073  17.449  66.239  1.00 39.68    -0.095 SA
ENDBRANCH  10  11
END_RES CYS A 145
BEGIN_RES GLN A 189
REMARK  3 active torsions:
REMARK  status: ('A' for Active; 'I' for Inactive)
REMARK    4  A    between atoms: CA   and  CB  
REMARK    5  A    between atoms: CB   and  CG  
REMARK    6  A    between atoms: CG   and  CD  
REMARK       I    between atoms: CD   and  NE2 
ROOT
ATOM     13  CA  GLN A 189     -11.641  10.633  75.105  1.00 38.41     0.177 C 
ENDROOT
BRANCH  13  14
ATOM     14  CB  GLN A 189     -10.259  11.109  74.679  1.00 37.59     0.044 C 
BRANCH  14  15
ATOM     15  CG  GLN A 189     -10.173  11.484  73.209  1.00 45.60     0.105 C 
BRANCH  15  16
ATOM     16  CD  GLN A 189     -10.381  12.966  72.968  1.00 47.27     0.215 C 
ATOM     17  NE2 GLN A 189      -9.553  13.549  72.108  1.00 44.45    -0.370 N 
ATOM     18 2HE2 GLN A 189      -8.811  13.040  71.627  1.00  0.00     0.159 HD
ATOM     19 1HE2 GLN A 189      -9.693  14.546  71.947  1.00  0.00     0.159 HD
ATOM     20  OE1 GLN A 189     -11.277  13.579  73.549  1.00 41.09    -0.274 OA
ENDBRANCH  15  16
ENDBRANCH  14  15
ENDBRANCH  13  14
END_RES GLN A 189
BEGIN_RES ASN A 142
REMARK  2 active torsions:
REMARK  status: ('A' for Active; 'I' for Inactive)
REMARK    7  A    between atoms: CA   and  CB  
REMARK    8  A    between atoms: CB   and  CG  
REMARK       I    between atoms: CG   and  ND2 
ROOT
ATOM     21  CA  ASN A 142      -7.978  15.712  62.559  1.00 43.18     0.185 C 
ENDROOT
BRANCH  21  22
ATOM     22  CB  ASN A 142      -6.512  15.609  62.983  1.00 38.76     0.137 C 
BRANCH  22  23
ATOM     23  CG  ASN A 142      -6.325  15.744  64.482  1.00 50.71     0.217 C 
ATOM     24  ND2 ASN A 142      -5.548  16.739  64.894  1.00 55.08    -0.370 N 
ATOM     25 2HD2 ASN A 142      -5.094  17.385  64.247  1.00  0.00     0.159 HD
ATOM     26 1HD2 ASN A 142      -5.422  16.830  65.902  1.00  0.00     0.159 HD
ATOM     27  OD1 ASN A 142      -6.872  14.965  65.262  1.00 51.97    -0.274 OA
ENDBRANCH  22  23
ENDBRANCH  21  22
END_RES ASN A 142
BEGIN_RES LEU A  27
REMARK  2 active torsions:
REMARK  status: ('A' for Active; 'I' for Inactive)
REMARK    9  A    between atoms: CA   and  CB  
REMARK   10  A    between atoms: CB   and  CG  
ROOT
ATOM     28  CA  LEU A  27     -11.471  23.771  64.549  1.00 37.04     0.177 C 
ENDROOT
BRANCH  28  29
ATOM     29  CB  LEU A  27     -12.225  22.902  65.570  1.00 37.70     0.038 C 
BRANCH  29  30
ATOM     30  CG  LEU A  27     -12.554  23.415  66.972  1.00 36.32    -0.020 C 
ATOM     31  CD1 LEU A  27     -13.796  24.291  66.970  1.00 32.79     0.009 C 
ATOM     32  CD2 LEU A  27     -12.742  22.231  67.909  1.00 31.17     0.009 C 
ENDBRANCH  29  30
ENDBRANCH  28  29
END_RES LEU A  27
BEGIN_RES MET A  49
REMARK  3 active torsions:
REMARK  status: ('A' for Active; 'I' for Inactive)
REMARK   11  A    between atoms: CA   and  CB  
REMARK   12  A    between atoms: CB   and  CG  
REMARK   13  A    between atoms: CG   and  SD  
ROOT
ATOM     33  CA  MET A  49      -9.418  15.600  76.823  1.00 61.58     0.177 C 
ENDROOT
BRANCH  33  34
ATOM     34  CB  MET A  49      -8.930  15.410  75.386  1.00 62.15     0.045 C 
BRANCH  34  35
ATOM     35  CG  MET A  49      -9.450  16.464  74.422  1.00 60.24     0.076 C 
BRANCH  35  36
ATOM     36  SD  MET A  49      -8.242  16.949  73.174  1.00 77.15    -0.173 SA
ATOM     37  CE  MET A  49      -8.645  18.683  72.973  1.00 60.34     0.089 C 
ENDBRANCH  35  36
ENDBRANCH  34  35
ENDBRANCH  33  34
END_RES MET A  49
BEGIN_RES GLU A 166
REMARK  3 active torsions:
REMARK  status: ('A' for Active; 'I' for Inactive)
REMARK   14  A    between atoms: CA   and  CB  
REMARK   15  A    between atoms: CB   and  CG  
REMARK   16  A    between atoms: CG   and  CD  
ROOT
ATOM     38  CA  GLU A 166     -14.746   9.219  66.167  1.00 28.52     0.177 C 
ENDROOT
BRANCH  38  39
ATOM     39  CB  GLU A 166     -13.578   9.064  65.189  1.00 29.90     0.045 C 
BRANCH  39  40
ATOM     40  CG  GLU A 166     -13.600   7.809  64.338  1.00 36.08     0.116 C 
BRANCH  40  41
ATOM     41  CD  GLU A 166     -12.449   7.772  63.351  1.00 45.17     0.172 C 
ATOM     42  OE2 GLU A 166     -11.295   7.997  63.774  1.00 40.54    -0.648 OA
ATOM     43  OE1 GLU A 166     -12.694   7.506  62.154  1.00 50.70    -0.648 OA
ENDBRANCH  40  41
ENDBRANCH  39  40
ENDBRANCH  38  39
END_RES GLU A 166
BEGIN_RES HIS A 163
REMARK  2 active torsions:
REMARK  status: ('A' for Active; 'I' for Inactive)
REMARK   17  A    between atoms: CA   and  CB  
REMARK   18  A    between atoms: CB   and  CG  
ROOT
ATOM     44  CA  HIS A 163     -19.055  16.637  64.100  1.00 27.27     0.182 C 
ENDROOT
BRANCH  44  45
ATOM     45  CB  HIS A 163     -18.129  16.377  62.914  1.00 26.00     0.093 C 
BRANCH  45  46
ATOM     46  CG  HIS A 163     -17.098  15.327  63.182  1.00 26.66     0.028 A 
ATOM     47  ND1 HIS A 163     -15.752  15.612  63.265  1.00 26.97    -0.354 N 
ATOM     48  CE1 HIS A 163     -15.082  14.499  63.502  1.00 30.44     0.180 A 
ATOM     49  HD1 HIS A 163     -15.338  16.538  63.160  1.00  0.00     0.166 HD
ATOM     50  NE2 HIS A 163     -15.945  13.501  63.570  1.00 30.00    -0.360 N 
ATOM     51  CD2 HIS A 163     -17.212  13.992  63.373  1.00 29.24     0.114 A 
ATOM     52  HE2 HIS A 163     -15.708  12.523  63.742  1.00  0.00     0.166 HD
ENDBRANCH  45  46
ENDBRANCH  44  45
END_RES HIS A 163
BEGIN_RES HIS A 172
REMARK  2 active torsions:
REMARK  status: ('A' for Active; 'I' for Inactive)
REMARK   19  A    between atoms: CA   and  CB  
REMARK   20  A    between atoms: CB   and  CG  
ROOT
ATOM     53  CA  HIS A 172     -18.444   9.111  64.049  1.00 29.85     0.182 C 
ENDROOT
BRANCH  53  54
ATOM     54  CB  HIS A 172     -18.188  10.085  62.898  1.00 26.76     0.093 C 
BRANCH  54  55
ATOM     55  CG  HIS A 172     -16.881   9.860  62.204  1.00 28.76     0.028 A 
ATOM     56  CD2 HIS A 172     -15.620  10.217  62.542  1.00 29.36     0.114 A 
ATOM     57  NE2 HIS A 172     -14.787   9.749  61.555  1.00 33.77    -0.360 N 
ATOM     58  CE1 HIS A 172     -15.511   9.121  60.645  1.00 32.44     0.180 A 
ATOM     59  HE2 HIS A 172     -13.774   9.867  61.529  1.00  0.00     0.166 HD
ATOM     60  ND1 HIS A 172     -16.779   9.170  61.015  1.00 29.32    -0.354 N 
ATOM     61  HD1 HIS A 172     -17.560   8.762  60.501  1.00  0.00     0.166 HD
ENDBRANCH  54  55
ENDBRANCH  53  54
END_RES HIS A 172
BEGIN_RES THR A  26
REMARK  2 active torsions:
REMARK  status: ('A' for Active; 'I' for Inactive)
REMARK   21  A    between atoms: CA   and  CB  
REMARK   22  A    between atoms: CB   and  OG1 
ROOT
ATOM     62  CA  THR A  26      -8.224  25.031  66.060  1.00 43.98     0.205 C 
ENDROOT
BRANCH  62  63
ATOM     63  CB  THR A  26      -7.184  25.490  65.034  1.00 45.90     0.146 C 
ATOM     64  CG2 THR A  26      -7.853  26.104  63.802  1.00 47.20     0.042 C 
BRANCH  63  65
ATOM     65  OG1 THR A  26      -6.303  26.447  65.631  1.00 50.51    -0.393 OA
ATOM     66  HG1 THR A  26      -6.799  27.201  65.928  1.00  0.00     0.210 HD
ENDBRANCH  63  65
ENDBRANCH  62  63
END_RES THR A  26
ENDMDL
MODEL 4
REMARK VINA RESULT:      -6.5      1.787      3.499
REMARK  6 active torsions:
REMARK  status: ('A' for Active; 'I' for Inactive)
REMARK    1  A    between atoms: C1_2  and  N1_3 
REMARK    2  A    between atoms: C1_2  and  N2_10 
REMARK    3  A    between atoms: N1_3  and  C2_4 
REMARK    4  A    between atoms: C5_8  and  O2_9 
REMARK    5  A    between atoms: C9_15  and  C10_16 
REMARK    6  A    between atoms: C10_16  and  C11_17 
ROOT
HETATM    1  O1  UNL     1     -10.845  18.141  68.493  1.00  0.00    -0.247 OA
HETATM    2  C1  UNL     1      -9.920  17.292  68.787  1.00  0.00     0.319 C 
ENDROOT
BRANCH   2   3
HETATM    3  N1  UNL     1      -8.875  17.654  69.663  1.00  0.00    -0.335 N 
HETATM    4  H1  UNL     1      -8.275  16.920  70.074  1.00  0.00     0.164 HD
BRANCH   3   5
HETATM    5  C2  UNL     1      -8.576  19.018  70.035  1.00  0.00     0.125 C 
HETATM    6  C3  UNL     1      -7.112  19.220  69.979  1.00  0.00     0.101 C 
HETATM    7  S1  UNL     1      -6.577  19.441  71.720  1.00  0.00    -0.164 SA
HETATM    8  C4  UNL     1      -8.214  19.069  72.451  1.00  0.00     0.107 C 
HETATM    9  C5  UNL     1      -9.130  19.442  71.331  1.00  0.00     0.151 C 
BRANCH   9  10
HETATM   10  O2  UNL     1     -10.374  18.893  71.604  1.00  0.00    -0.393 OA
HETATM   11  H8  UNL     1     -10.512  18.838  72.604  1.00  0.00     0.210 HD
ENDBRANCH   9  10
ENDBRANCH   3   5
ENDBRANCH   2   3
BRANCH   2  12
HETATM   12  N2  UNL     1     -10.023  16.021  68.191  1.00  0.00    -0.325 N 
HETATM   13  C6  UNL     1      -9.052  15.462  67.291  1.00  0.00     0.154 C 
HETATM   14  C7  UNL     1      -9.754  15.380  65.926  1.00  0.00     0.187 C 
HETATM   15  O3  UNL     1     -11.032  14.900  66.071  1.00  0.00    -0.387 OA
HETATM   16  C8  UNL     1     -11.246  14.215  67.266  1.00  0.00     0.193 C 
HETATM   17  C9  UNL     1     -11.181  15.154  68.460  1.00  0.00     0.117 C 
BRANCH  17  18
HETATM   18  C10 UNL     1     -10.877  14.341  69.679  1.00  0.00     0.066 C 
BRANCH  18  19
HETATM   19  C11 UNL     1     -12.056  14.176  70.560  1.00  0.00    -0.056 A 
HETATM   20  C12 UNL     1     -12.982  15.219  70.689  1.00  0.00     0.007 A 
HETATM   21  C13 UNL     1     -14.094  15.125  71.493  1.00  0.00     0.001 A 
HETATM   22  C14 UNL     1     -14.271  13.945  72.183  1.00  0.00     0.000 A 
HETATM   23  C15 UNL     1     -13.383  12.901  72.080  1.00  0.00     0.001 A 
HETATM   24  C16 UNL     1     -12.292  13.029  71.273  1.00  0.00     0.007 A 
ENDBRANCH  18  19
ENDBRANCH  17  18
ENDBRANCH   2  12
TORSDOF 4
BEGIN_RES HIS A  41
REMARK  2 active torsions:
REMARK  status: ('A' for Active; 'I' for Inactive)
REMARK    1  A    between atoms: CA   and  CB  
REMARK    2  A    between atoms: CB   and  CG  
ROOT
ATOM      1  CA  HIS A  41     -13.820  21.037  73.265  1.00 38.89     0.182 C 
ENDROOT
BRANCH   1   2
ATOM      2  CB  HIS A  41     -13.705  19.545  72.937  1.00 42.38     0.093 C 
BRANCH   2   3
ATOM      3  CG  HIS A  41     -14.064  19.203  71.525  1.00 37.90     0.028 A 
ATOM      4  CD2 HIS A  41     -15.175  18.638  70.998  1.00 37.33     0.114 A 
ATOM      5  NE2 HIS A  41     -14.982  18.556  69.640  1.00 41.88    -0.360 N 
ATOM      6  CE1 HIS A  41     -13.797  19.059  69.344  1.00 41.55     0.180 A 
ATOM      7  HE2 HIS A  41     -15.647  18.170  68.969  1.00  0.00     0.166 HD
ATOM      8  ND1 HIS A  41     -13.222  19.459  70.464  1.00 36.57    -0.354 N 
ATOM      9  HD1 HIS A  41     -12.301  19.890  70.532  1.00  0.00     0.166 HD
ENDBRANCH   2   3
ENDBRANCH   1   2
END_RES HIS A  41
BEGIN_RES CYS A 145
REMARK  1 active torsions:
REMARK  status: ('A' for Active; 'I' for Inactive)
REMARK    3  A    between atoms: CA   and  CB  
ROOT
ATOM     10  CA  CYS A 145     -14.607  19.162  64.101  1.00 29.71     0.186 C 
ENDROOT
BRANCH  10  11
ATOM     11  CB  CYS A 145     -14.100  19.110  65.541  1.00 31.75     0.120 C 
ATOM     12  SG  CYS A 145     -13.571  17.468  66.063  1.00 39.68    -0.095 SA
ENDBRANCH  10  11
END_RES CYS A 145
BEGIN_RES GLN A 189
REMARK  3 active torsions:
REMARK  status: ('A' for Active; 'I' for Inactive)
REMARK    4  A    between atoms: CA   and  CB  
REMARK    5  A    between atoms: CB   and  CG  
REMARK    6  A    between atoms: CG   and  CD  
REMARK       I    between atoms: CD   and  NE2 
ROOT
ATOM     13  CA  GLN A 189     -11.641  10.633  75.105  1.00 38.41     0.177 C 
ENDROOT
BRANCH  13  14
ATOM     14  CB  GLN A 189     -10.259  11.109  74.679  1.00 37.59     0.044 C 
BRANCH  14  15
ATOM     15  CG  GLN A 189      -9.914  10.760  73.241  1.00 45.60     0.105 C 
BRANCH  15  16
ATOM     16  CD  GLN A 189      -9.106  11.842  72.552  1.00 47.27     0.215 C 
ATOM     17  NE2 GLN A 189      -8.325  11.452  71.551  1.00 44.45    -0.370 N 
ATOM     18 2HE2 GLN A 189      -8.260  10.480  71.250  1.00  0.00     0.159 HD
ATOM     19 1HE2 GLN A 189      -7.781  12.180  71.088  1.00  0.00     0.159 HD
ATOM     20  OE1 GLN A 189      -9.184  13.015  72.917  1.00 41.09    -0.274 OA
ENDBRANCH  15  16
ENDBRANCH  14  15
ENDBRANCH  13  14
END_RES GLN A 189
BEGIN_RES ASN A 142
REMARK  2 active torsions:
REMARK  status: ('A' for Active; 'I' for Inactive)
REMARK    7  A    between atoms: CA   and  CB  
REMARK    8  A    between atoms: CB   and  CG  
REMARK       I    between atoms: CG   and  ND2 
ROOT
ATOM     21  CA  ASN A 142      -7.978  15.712  62.559  1.00 43.18     0.185 C 
ENDROOT
BRANCH  21  22
ATOM     22  CB  ASN A 142      -6.512  15.609  62.983  1.00 38.76     0.137 C 
BRANCH  22  23
ATOM     23  CG  ASN A 142      -6.349  15.350  64.469  1.00 50.71     0.217 C 
ATOM     24  ND2 ASN A 142      -6.425  14.083  64.860  1.00 55.08    -0.370 N 
ATOM     25 2HD2 ASN A 142      -6.587  13.315  64.207  1.00  0.00     0.159 HD
ATOM     26 1HD2 ASN A 142      -6.316  13.909  65.859  1.00  0.00     0.159 HD
ATOM     27  OD1 ASN A 142      -6.154  16.276  65.256  1.00 51.97    -0.274 OA
ENDBRANCH  22  23
ENDBRANCH  21  22
END_RES ASN A 142
BEGIN_RES LEU A  27
REMARK  2 active torsions:
REMARK  status: ('A' for Active; 'I' for Inactive)
REMARK    9  A    between atoms: CA   and  CB  
REMARK   10  A    between atoms: CB   and  CG  
ROOT
ATOM     28  CA  LEU A  27     -11.471  23.771  64.549  1.00 37.04     0.177 C 
ENDROOT
BRANCH  28  29
ATOM     29  CB  LEU A  27     -12.225  22.902  65.570  1.00 37.70     0.038 C 
BRANCH  29  30
ATOM     30  CG  LEU A  27     -12.517  23.399  66.986  1.00 36.32    -0.020 C 
ATOM     31  CD1 LEU A  27     -13.859  24.108  67.065  1.00 32.79     0.009 C 
ATOM     32  CD2 LEU A  27     -12.482  22.221  67.949  1.00 31.17     0.009 C 
ENDBRANCH  29  30
ENDBRANCH  28  29
END_RES LEU A  27
BEGIN_RES MET A  49
REMARK  3 active torsions:
REMARK  status: ('A' for Active; 'I' for Inactive)
REMARK   11  A    between atoms: CA   and  CB  
REMARK   12  A    between atoms: CB   and  CG  
REMARK   13  A    between atoms: CG   and  SD  
ROOT
ATOM     33  CA  MET A  49      -9.418  15.600  76.823  1.00 61.58     0.177 C 
ENDROOT
BRANCH  33  34
ATOM     34  CB  MET A  49      -8.930  15.410  75.386  1.00 62.15     0.045 C 
BRANCH  34  35
ATOM     35  CG  MET A  49      -9.634  16.307  74.380  1.00 60.24     0.076 C 
BRANCH  35  36
ATOM     36  SD  MET A  49     -11.162  17.026  75.012  1.00 77.15    -0.173 SA
ATOM     37  CE  MET A  49     -12.335  15.735  74.603  1.00 60.34     0.089 C 
ENDBRANCH  35  36
ENDBRANCH  34  35
ENDBRANCH  33  34
END_RES MET A  49
BEGIN_RES GLU A 166
REMARK  3 active torsions:
REMARK  status: ('A' for Active; 'I' for Inactive)
REMARK   14  A    between atoms: CA   and  CB  
REMARK   15  A    between atoms: CB   and  CG  
REMARK   16  A    between atoms: CG   and  CD  
ROOT
ATOM     38  CA  GLU A 166     -14.746   9.219  66.167  1.00 28.52     0.177 C 
ENDROOT
BRANCH  38  39
ATOM     39  CB  GLU A 166     -13.578   9.064  65.189  1.00 29.90     0.045 C 
BRANCH  39  40
ATOM     40  CG  GLU A 166     -12.422  10.024  65.394  1.00 36.08     0.116 C 
BRANCH  40  41
ATOM     41  CD  GLU A 166     -12.360  11.079  64.305  1.00 45.17     0.172 C 
ATOM     42  OE2 GLU A 166     -11.334  11.141  63.594  1.00 40.54    -0.648 OA
ATOM     43  OE1 GLU A 166     -13.340  11.840  64.152  1.00 50.70    -0.648 OA
ENDBRANCH  40  41
ENDBRANCH  39  40
ENDBRANCH  38  39
END_RES GLU A 166
BEGIN_RES HIS A 163
REMARK  2 active torsions:
REMARK  status: ('A' for Active; 'I' for Inactive)
REMARK   17  A    between atoms: CA   and  CB  
REMARK   18  A    between atoms: CB   and  CG  
ROOT
ATOM     44  CA  HIS A 163     -19.055  16.637  64.100  1.00 27.27     0.182 C 
ENDROOT
BRANCH  44  45
ATOM     45  CB  HIS A 163     -18.129  16.377  62.914  1.00 26.00     0.093 C 
BRANCH  45  46
ATOM     46  CG  HIS A 163     -17.087  15.339  63.188  1.00 26.66     0.028 A 
ATOM     47  ND1 HIS A 163     -15.744  15.638  63.264  1.00 26.97    -0.354 N 
ATOM     48  CE1 HIS A 163     -15.062  14.533  63.508  1.00 30.44     0.180 A 
ATOM     49  HD1 HIS A 163     -15.339  16.567  63.150  1.00  0.00     0.166 HD
ATOM     50  NE2 HIS A 163     -15.916  13.527  63.588  1.00 30.00    -0.360 N 
ATOM     51  CD2 HIS A 163     -17.188  14.004  63.390  1.00 29.24     0.114 A 
ATOM     52  HE2 HIS A 163     -15.669  12.554  63.767  1.00  0.00     0.166 HD
ENDBRANCH  45  46
ENDBRANCH  44  45
END_RES HIS A 163
BEGIN_RES HIS A 172
REMARK  2 active torsions:
REMARK  status: ('A' for Active; 'I' for Inactive)
REMARK   19  A    between atoms: CA   and  CB  
REMARK   20  A    between atoms: CB   and  CG  
ROOT
ATOM     53  CA  HIS A 172     -18.444   9.111  64.049  1.00 29.85     0.182 C 
ENDROOT
BRANCH  53  54
ATOM     54  CB  HIS A 172     -18.188  10.085  62.898  1.00 26.76     0.093 C 
BRANCH  54  55
ATOM     55  CG  HIS A 172     -16.925   9.803  62.147  1.00 28.76     0.028 A 
ATOM     56  CD2 HIS A 172     -16.711   9.174  60.967  1.00 29.36     0.114 A 
ATOM     57  NE2 HIS A 172     -15.357   9.201  60.732  1.00 33.77    -0.360 N 
ATOM     58  CE1 HIS A 172     -14.761   9.828  61.731  1.00 32.44     0.180 A 
ATOM     59  HE2 HIS A 172     -14.889   8.800  59.920  1.00  0.00     0.166 HD
ATOM     60  ND1 HIS A 172     -15.685  10.206  62.597  1.00 29.32    -0.354 N 
ATOM     61  HD1 HIS A 172     -15.510  10.715  63.463  1.00  0.00     0.166 HD
ENDBRANCH  54  55
ENDBRANCH  53  54
END_RES HIS A 172
BEGIN_RES THR A  26
REMARK  2 active torsions:
REMARK  status: ('A' for Active; 'I' for Inactive)
REMARK   21  A    between atoms: CA   and  CB  
REMARK   22  A    between atoms: CB   and  OG1 
ROOT
ATOM     62  CA  THR A  26      -8.224  25.031  66.060  1.00 43.98     0.205 C 
ENDROOT
BRANCH  62  63
ATOM     63  CB  THR A  26      -7.184  25.490  65.034  1.00 45.90     0.146 C 
ATOM     64  CG2 THR A  26      -7.853  26.071  63.787  1.00 47.20     0.042 C 
BRANCH  63  65
ATOM     65  OG1 THR A  26      -6.323  26.472  65.621  1.00 50.51    -0.393 OA
ATOM     66  HG1 THR A  26      -5.483  26.081  65.829  1.00  0.00     0.210 HD
ENDBRANCH  63  65
ENDBRANCH  62  63
END_RES THR A  26
ENDMDL
MODEL 5
REMARK VINA RESULT:      -6.4      2.044      4.058
REMARK  6 active torsions:
REMARK  status: ('A' for Active; 'I' for Inactive)
REMARK    1  A    between atoms: C1_2  and  N1_3 
REMARK    2  A    between atoms: C1_2  and  N2_10 
REMARK    3  A    between atoms: N1_3  and  C2_4 
REMARK    4  A    between atoms: C5_8  and  O2_9 
REMARK    5  A    between atoms: C9_15  and  C10_16 
REMARK    6  A    between atoms: C10_16  and  C11_17 
ROOT
HETATM    1  O1  UNL     1     -11.732  16.636  70.913  1.00  0.00    -0.247 OA
HETATM    2  C1  UNL     1     -10.650  16.247  70.331  1.00  0.00     0.319 C 
ENDROOT
BRANCH   2   3
HETATM    3  N1  UNL     1      -9.392  16.670  70.811  1.00  0.00    -0.335 N 
HETATM    4  H1  UNL     1      -8.838  16.042  71.415  1.00  0.00     0.164 HD
BRANCH   3   5
HETATM    5  C2  UNL     1      -8.809  17.956  70.506  1.00  0.00     0.125 C 
HETATM    6  C3  UNL     1      -7.354  17.788  70.305  1.00  0.00     0.101 C 
HETATM    7  S1  UNL     1      -6.557  18.625  71.728  1.00  0.00    -0.164 SA
HETATM    8  C4  UNL     1      -8.119  18.979  72.616  1.00  0.00     0.107 C 
HETATM    9  C5  UNL     1      -9.099  19.015  71.488  1.00  0.00     0.151 C 
BRANCH   9  10
HETATM   10  O2  UNL     1     -10.371  18.928  72.033  1.00  0.00    -0.393 OA
HETATM   11  H8  UNL     1     -10.325  18.487  72.941  1.00  0.00     0.210 HD
ENDBRANCH   9  10
ENDBRANCH   3   5
ENDBRANCH   2   3
BRANCH   2  12
HETATM   12  N2  UNL     1     -10.807  15.396  69.221  1.00  0.00    -0.325 N 
HETATM   13  C6  UNL     1     -11.805  14.367  69.118  1.00  0.00     0.154 C 
HETATM   14  C7  UNL     1     -11.031  13.039  69.132  1.00  0.00     0.187 C 
HETATM   15  O3  UNL     1      -9.925  13.119  68.323  1.00  0.00    -0.387 OA
HETATM   16  C8  UNL     1      -9.985  14.147  67.383  1.00  0.00     0.193 C 
HETATM   17  C9  UNL     1      -9.922  15.511  68.051  1.00  0.00     0.117 C 
BRANCH  17  18
HETATM   18  C10 UNL     1     -10.516  16.518  67.117  1.00  0.00     0.066 C 
BRANCH  18  19
HETATM   19  C11 UNL     1      -9.761  17.791  67.100  1.00  0.00    -0.056 A 
HETATM   20  C12 UNL     1      -8.405  17.793  66.748  1.00  0.00     0.007 A 
HETATM   21  C13 UNL     1      -7.651  18.943  66.716  1.00  0.00     0.001 A 
HETATM   22  C14 UNL     1      -8.287  20.120  67.050  1.00  0.00     0.000 A 
HETATM   23  C15 UNL     1      -9.616  20.155  67.400  1.00  0.00     0.001 A 
HETATM   24  C16 UNL     1     -10.333  18.996  67.420  1.00  0.00     0.007 A 
ENDBRANCH  18  19
ENDBRANCH  17  18
ENDBRANCH   2  12
TORSDOF 4
BEGIN_RES HIS A  41
REMARK  2 active torsions:
REMARK  status: ('A' for Active; 'I' for Inactive)
REMARK    1  A    between atoms: CA   and  CB  
REMARK    2  A    between atoms: CB   and  CG  
ROOT
ATOM      1  CA  HIS A  41     -13.820  21.037  73.265  1.00 38.89     0.182 C 
ENDROOT
BRANCH   1   2
ATOM      2  CB  HIS A  41     -13.705  19.545  72.937  1.00 42.38     0.093 C 
BRANCH   2   3
ATOM      3  CG  HIS A  41     -13.962  19.216  71.500  1.00 37.90     0.028 A 
ATOM      4  CD2 HIS A  41     -15.039  18.670  70.887  1.00 37.33     0.114 A 
ATOM      5  NE2 HIS A  41     -14.746  18.594  69.547  1.00 41.88    -0.360 N 
ATOM      6  CE1 HIS A  41     -13.535  19.081  69.344  1.00 41.55     0.180 A 
ATOM      7  HE2 HIS A  41     -15.364  18.221  68.826  1.00  0.00     0.166 HD
ATOM      8  ND1 HIS A  41     -13.040  19.466  70.506  1.00 36.57    -0.354 N 
ATOM      9  HD1 HIS A  41     -12.120  19.884  70.646  1.00  0.00     0.166 HD
ENDBRANCH   2   3
ENDBRANCH   1   2
END_RES HIS A  41
BEGIN_RES CYS A 145
REMARK  1 active torsions:
REMARK  status: ('A' for Active; 'I' for Inactive)
REMARK    3  A    between atoms: CA   and  CB  
ROOT
ATOM     10  CA  CYS A 145     -14.607  19.162  64.101  1.00 29.71     0.186 C 
ENDROOT
BRANCH  10  11
ATOM     11  CB  CYS A 145     -14.100  19.110  65.541  1.00 31.75     0.120 C 
ATOM     12  SG  CYS A 145     -13.774  17.439  66.133  1.00 39.68    -0.095 SA
ENDBRANCH  10  11
END_RES CYS A 145
BEGIN_RES GLN A 189
REMARK  3 active torsions:
REMARK  status: ('A' for Active; 'I' for Inactive)
REMARK    4  A    between atoms: CA   and  CB  
REMARK    5  A    between atoms: CB   and  CG  
REMARK    6  A    between atoms: CG   and  CD  
REMARK       I    between atoms: CD   and  NE2 
ROOT
ATOM     13  CA  GLN A 189     -11.641  10.633  75.105  1.00 38.41     0.177 C 
ENDROOT
BRANCH  13  14
ATOM     14  CB  GLN A 189     -10.259  11.109  74.679  1.00 37.59     0.044 C 
BRANCH  14  15
ATOM     15  CG  GLN A 189     -10.105  11.257  73.174  1.00 45.60     0.105 C 
BRANCH  15  16
ATOM     16  CD  GLN A 189     -10.450  12.649  72.684  1.00 47.27     0.215 C 
ATOM     17  NE2 GLN A 189      -9.433  13.403  72.280  1.00 44.45    -0.370 N 
ATOM     18 2HE2 GLN A 189      -8.467  13.078  72.293  1.00  0.00     0.159 HD
ATOM     19 1HE2 GLN A 189      -9.665  14.340  71.950  1.00  0.00     0.159 HD
ATOM     20  OE1 GLN A 189     -11.616  13.041  72.668  1.00 41.09    -0.274 OA
ENDBRANCH  15  16
ENDBRANCH  14  15
ENDBRANCH  13  14
END_RES GLN A 189
BEGIN_RES ASN A 142
REMARK  2 active torsions:
REMARK  status: ('A' for Active; 'I' for Inactive)
REMARK    7  A    between atoms: CA   and  CB  
REMARK    8  A    between atoms: CB   and  CG  
REMARK       I    between atoms: CG   and  ND2 
ROOT
ATOM     21  CA  ASN A 142      -7.978  15.712  62.559  1.00 43.18     0.185 C 
ENDROOT
BRANCH  21  22
ATOM     22  CB  ASN A 142      -6.512  15.609  62.983  1.00 38.76     0.137 C 
BRANCH  22  23
ATOM     23  CG  ASN A 142      -6.344  15.040  64.379  1.00 50.71     0.217 C 
ATOM     24  ND2 ASN A 142      -7.461  14.769  65.045  1.00 55.08    -0.370 N 
ATOM     25 2HD2 ASN A 142      -8.388  14.930  64.651  1.00  0.00     0.159 HD
ATOM     26 1HD2 ASN A 142      -7.348  14.387  65.984  1.00  0.00     0.159 HD
ATOM     27  OD1 ASN A 142      -5.226  14.846  64.854  1.00 51.97    -0.274 OA
ENDBRANCH  22  23
ENDBRANCH  21  22
END_RES ASN A 142
BEGIN_RES LEU A  27
REMARK  2 active torsions:
REMARK  status: ('A' for Active; 'I' for Inactive)
REMARK    9  A    between atoms: CA   and  CB  
REMARK   10  A    between atoms: CB   and  CG  
ROOT
ATOM     28  CA  LEU A  27     -11.471  23.771  64.549  1.00 37.04     0.177 C 
ENDROOT
BRANCH  28  29
ATOM     29  CB  LEU A  27     -12.225  22.902  65.570  1.00 37.70     0.038 C 
BRANCH  29  30
ATOM     30  CG  LEU A  27     -12.556  23.415  66.971  1.00 36.32    -0.020 C 
ATOM     31  CD1 LEU A  27     -13.808  24.278  66.970  1.00 32.79     0.009 C 
ATOM     32  CD2 LEU A  27     -12.728  22.233  67.913  1.00 31.17     0.009 C 
ENDBRANCH  29  30
ENDBRANCH  28  29
END_RES LEU A  27
BEGIN_RES MET A  49
REMARK  3 active torsions:
REMARK  status: ('A' for Active; 'I' for Inactive)
REMARK   11  A    between atoms: CA   and  CB  
REMARK   12  A    between atoms: CB   and  CG  
REMARK   13  A    between atoms: CG   and  SD  
ROOT
ATOM     33  CA  MET A  49      -9.418  15.600  76.823  1.00 61.58     0.177 C 
ENDROOT
BRANCH  33  34
ATOM     34  CB  MET A  49      -8.930  15.410  75.386  1.00 62.15     0.045 C 
BRANCH  34  35
ATOM     35  CG  MET A  49      -9.672  16.267  74.372  1.00 60.24     0.076 C 
BRANCH  35  36
ATOM     36  SD  MET A  49     -11.193  16.985  75.023  1.00 77.15    -0.173 SA
ATOM     37  CE  MET A  49     -12.396  15.776  74.474  1.00 60.34     0.089 C 
ENDBRANCH  35  36
ENDBRANCH  34  35
ENDBRANCH  33  34
END_RES MET A  49
BEGIN_RES GLU A 166
REMARK  3 active torsions:
REMARK  status: ('A' for Active; 'I' for Inactive)
REMARK   14  A    between atoms: CA   and  CB  
REMARK   15  A    between atoms: CB   and  CG  
REMARK   16  A    between atoms: CG   and  CD  
ROOT
ATOM     38  CA  GLU A 166     -14.746   9.219  66.167  1.00 28.52     0.177 C 
ENDROOT
BRANCH  38  39
ATOM     39  CB  GLU A 166     -13.578   9.064  65.189  1.00 29.90     0.045 C 
BRANCH  39  40
ATOM     40  CG  GLU A 166     -12.427  10.031  65.387  1.00 36.08     0.116 C 
BRANCH  40  41
ATOM     41  CD  GLU A 166     -12.374  11.083  64.294  1.00 45.17     0.172 C 
ATOM     42  OE2 GLU A 166     -11.326  11.192  63.624  1.00 40.54    -0.648 OA
ATOM     43  OE1 GLU A 166     -13.384  11.793  64.098  1.00 50.70    -0.648 OA
ENDBRANCH  40  41
ENDBRANCH  39  40
ENDBRANCH  38  39
END_RES GLU A 166
BEGIN_RES HIS A 163
REMARK  2 active torsions:
REMARK  status: ('A' for Active; 'I' for Inactive)
REMARK   17  A    between atoms: CA   and  CB  
REMARK   18  A    between atoms: CB   and  CG  
ROOT
ATOM     44  CA  HIS A 163     -19.055  16.637  64.100  1.00 27.27     0.182 C 
ENDROOT
BRANCH  44  45
ATOM     45  CB  HIS A 163     -18.129  16.377  62.914  1.00 26.00     0.093 C 
BRANCH  45  46
ATOM     46  CG  HIS A 163     -17.091  15.335  63.186  1.00 26.66     0.028 A 
ATOM     47  ND1 HIS A 163     -15.747  15.630  63.271  1.00 26.97    -0.354 N 
ATOM     48  CE1 HIS A 163     -15.069  14.522  63.511  1.00 30.44     0.180 A 
ATOM     49  HD1 HIS A 163     -15.340  16.559  63.166  1.00  0.00     0.166 HD
ATOM     50  NE2 HIS A 163     -15.925  13.518  63.579  1.00 30.00    -0.360 N 
ATOM     51  CD2 HIS A 163     -17.196  13.999  63.379  1.00 29.24     0.114 A 
ATOM     52  HE2 HIS A 163     -15.681  12.543  63.753  1.00  0.00     0.166 HD
ENDBRANCH  45  46
ENDBRANCH  44  45
END_RES HIS A 163
BEGIN_RES HIS A 172
REMARK  2 active torsions:
REMARK  status: ('A' for Active; 'I' for Inactive)
REMARK   19  A    between atoms: CA   and  CB  
REMARK   20  A    between atoms: CB   and  CG  
ROOT
ATOM     53  CA  HIS A 172     -18.444   9.111  64.049  1.00 29.85     0.182 C 
ENDROOT
BRANCH  53  54
ATOM     54  CB  HIS A 172     -18.188  10.085  62.898  1.00 26.76     0.093 C 
BRANCH  54  55
ATOM     55  CG  HIS A 172     -16.936   9.789  62.133  1.00 28.76     0.028 A 
ATOM     56  CD2 HIS A 172     -16.743   9.161  60.949  1.00 29.36     0.114 A 
ATOM     57  NE2 HIS A 172     -15.392   9.171  60.700  1.00 33.77    -0.360 N 
ATOM     58  CE1 HIS A 172     -14.777   9.789  61.694  1.00 32.44     0.180 A 
ATOM     59  HE2 HIS A 172     -14.938   8.767  59.881  1.00  0.00     0.166 HD
ATOM     60  ND1 HIS A 172     -15.687  10.176  62.570  1.00 29.32    -0.354 N 
ATOM     61  HD1 HIS A 172     -15.496  10.681  63.436  1.00  0.00     0.166 HD
ENDBRANCH  54  55
ENDBRANCH  53  54
END_RES HIS A 172
BEGIN_RES THR A  26
REMARK  2 active torsions:
REMARK  status: ('A' for Active; 'I' for Inactive)
REMARK   21  A    between atoms: CA   and  CB  
REMARK   22  A    between atoms: CB   and  OG1 
ROOT
ATOM     62  CA  THR A  26      -8.224  25.031  66.060  1.00 43.98     0.205 C 
ENDROOT
BRANCH  62  63
ATOM     63  CB  THR A  26      -7.184  25.490  65.034  1.00 45.90     0.146 C 
ATOM     64  CG2 THR A  26      -7.852  26.110  63.805  1.00 47.20     0.042 C 
BRANCH  63  65
ATOM     65  OG1 THR A  26      -6.298  26.442  65.633  1.00 50.51    -0.393 OA
ATOM     66  HG1 THR A  26      -6.129  26.201  66.537  1.00  0.00     0.210 HD
ENDBRANCH  63  65
ENDBRANCH  62  63
END_RES THR A  26
ENDMDL
MODEL 6
REMARK VINA RESULT:      -6.3      1.898      3.627
REMARK  6 active torsions:
REMARK  status: ('A' for Active; 'I' for Inactive)
REMARK    1  A    between atoms: C1_2  and  N1_3 
REMARK    2  A    between atoms: C1_2  and  N2_10 
REMARK    3  A    between atoms: N1_3  and  C2_4 
REMARK    4  A    between atoms: C5_8  and  O2_9 
REMARK    5  A    between atoms: C9_15  and  C10_16 
REMARK    6  A    between atoms: C10_16  and  C11_17 
ROOT
HETATM    1  O1  UNL     1     -11.604  16.545  69.925  1.00  0.00    -0.247 OA
HETATM    2  C1  UNL     1     -10.409  16.313  69.500  1.00  0.00     0.319 C 
ENDROOT
BRANCH   2   3
HETATM    3  N1  UNL     1      -9.313  17.019  70.039  1.00  0.00    -0.335 N 
HETATM    4  H1  UNL     1      -8.594  16.510  70.579  1.00  0.00     0.164 HD
BRANCH   3   5
HETATM    5  C2  UNL     1      -9.120  18.442  69.882  1.00  0.00     0.125 C 
HETATM    6  C3  UNL     1      -7.748  18.688  69.389  1.00  0.00     0.101 C 
HETATM    7  S1  UNL     1      -6.861  19.499  70.774  1.00  0.00    -0.164 SA
HETATM    8  C4  UNL     1      -8.222  19.308  71.984  1.00  0.00     0.107 C 
HETATM    9  C5  UNL     1      -9.413  19.242  71.083  1.00  0.00     0.151 C 
BRANCH   9  10
HETATM   10  O2  UNL     1     -10.477  18.752  71.825  1.00  0.00    -0.393 OA
HETATM   11  H8  UNL     1     -10.179  18.577  72.776  1.00  0.00     0.210 HD
ENDBRANCH   9  10
ENDBRANCH   3   5
ENDBRANCH   2   3
BRANCH   2  12
HETATM   12  N2  UNL     1     -10.281  15.337  68.493  1.00  0.00    -0.325 N 
HETATM   13  C6  UNL     1      -9.339  15.403  67.410  1.00  0.00     0.154 C 
HETATM   14  C7  UNL     1     -10.182  15.588  66.139  1.00  0.00     0.187 C 
HETATM   15  O3  UNL     1     -11.271  14.753  66.159  1.00  0.00    -0.387 OA
HETATM   16  C8  UNL     1     -11.142  13.678  67.038  1.00  0.00     0.193 C 
HETATM   17  C9  UNL     1     -11.142  14.145  68.485  1.00  0.00     0.117 C 
BRANCH  17  18
HETATM   18  C10 UNL     1     -10.482  13.090  69.317  1.00  0.00     0.066 C 
BRANCH  18  19
HETATM   19  C11 UNL     1     -11.439  12.376  70.192  1.00  0.00    -0.056 A 
HETATM   20  C12 UNL     1     -11.690  11.013  69.985  1.00  0.00     0.007 A 
HETATM   21  C13 UNL     1     -12.569  10.297  70.764  1.00  0.00     0.001 A 
HETATM   22  C14 UNL     1     -13.210  10.979  71.776  1.00  0.00     0.000 A 
HETATM   23  C15 UNL     1     -12.988  12.316  72.008  1.00  0.00     0.001 A 
HETATM   24  C16 UNL     1     -12.109  12.994  71.217  1.00  0.00     0.007 A 
ENDBRANCH  18  19
ENDBRANCH  17  18
ENDBRANCH   2  12
TORSDOF 4
BEGIN_RES HIS A  41
REMARK  2 active torsions:
REMARK  status: ('A' for Active; 'I' for Inactive)
REMARK    1  A    between atoms: CA   and  CB  
REMARK    2  A    between atoms: CB   and  CG  
ROOT
ATOM      1  CA  HIS A  41     -13.820  21.037  73.265  1.00 38.89     0.182 C 
ENDROOT
BRANCH   1   2
ATOM      2  CB  HIS A  41     -13.705  19.545  72.937  1.00 42.38     0.093 C 
BRANCH   2   3
ATOM      3  CG  HIS A  41     -13.993  19.212  71.507  1.00 37.90     0.028 A 
ATOM      4  CD2 HIS A  41     -15.073  18.643  70.922  1.00 37.33     0.114 A 
ATOM      5  NE2 HIS A  41     -14.815  18.575  69.574  1.00 41.88    -0.360 N 
ATOM      6  CE1 HIS A  41     -13.620  19.089  69.340  1.00 41.55     0.180 A 
ATOM      7  HE2 HIS A  41     -15.444  18.190  68.869  1.00  0.00     0.166 HD
ATOM      8  ND1 HIS A  41     -13.104  19.484  70.489  1.00 36.57    -0.354 N 
ATOM      9  HD1 HIS A  41     -12.190  19.921  70.605  1.00  0.00     0.166 HD
ENDBRANCH   2   3
ENDBRANCH   1   2
END_RES HIS A  41
BEGIN_RES CYS A 145
REMARK  1 active torsions:
REMARK  status: ('A' for Active; 'I' for Inactive)
REMARK    3  A    between atoms: CA   and  CB  
ROOT
ATOM     10  CA  CYS A 145     -14.607  19.162  64.101  1.00 29.71     0.186 C 
ENDROOT
BRANCH  10  11
ATOM     11  CB  CYS A 145     -14.100  19.110  65.541  1.00 31.75     0.120 C 
ATOM     12  SG  CYS A 145     -13.644  17.455  66.088  1.00 39.68    -0.095 SA
ENDBRANCH  10  11
END_RES CYS A 145
BEGIN_RES GLN A 189
REMARK  3 active torsions:
REMARK  status: ('A' for Active; 'I' for Inactive)
REMARK    4  A    between atoms: CA   and  CB  
REMARK    5  A    between atoms: CB   and  CG  
REMARK    6  A    between atoms: CG   and  CD  
REMARK       I    between atoms: CD   and  NE2 
ROOT
ATOM     13  CA  GLN A 189     -11.641  10.633  75.105  1.00 38.41     0.177 C 
ENDROOT
BRANCH  13  14
ATOM     14  CB  GLN A 189     -10.259  11.109  74.679  1.00 37.59     0.044 C 
BRANCH  14  15
ATOM     15  CG  GLN A 189      -9.852  10.631  73.295  1.00 45.60     0.105 C 
BRANCH  15  16
ATOM     16  CD  GLN A 189      -8.825  11.533  72.641  1.00 47.27     0.215 C 
ATOM     17  NE2 GLN A 189      -8.932  12.833  72.892  1.00 44.45    -0.370 N 
ATOM     18 2HE2 GLN A 189      -9.662  13.219  73.490  1.00  0.00     0.159 HD
ATOM     19 1HE2 GLN A 189      -8.241  13.440  72.452  1.00  0.00     0.159 HD
ATOM     20  OE1 GLN A 189      -7.944  11.065  71.919  1.00 41.09    -0.274 OA
ENDBRANCH  15  16
ENDBRANCH  14  15
ENDBRANCH  13  14
END_RES GLN A 189
BEGIN_RES ASN A 142
REMARK  2 active torsions:
REMARK  status: ('A' for Active; 'I' for Inactive)
REMARK    7  A    between atoms: CA   and  CB  
REMARK    8  A    between atoms: CB   and  CG  
REMARK       I    between atoms: CG   and  ND2 
ROOT
ATOM     21  CA  ASN A 142      -7.978  15.712  62.559  1.00 43.18     0.185 C 
ENDROOT
BRANCH  21  22
ATOM     22  CB  ASN A 142      -6.512  15.609  62.983  1.00 38.76     0.137 C 
BRANCH  22  23
ATOM     23  CG  ASN A 142      -6.325  15.738  64.483  1.00 50.71     0.217 C 
ATOM     24  ND2 ASN A 142      -5.513  14.858  65.056  1.00 55.08    -0.370 N 
ATOM     25 2HD2 ASN A 142      -5.033  14.128  64.527  1.00  0.00     0.159 HD
ATOM     26 1HD2 ASN A 142      -5.387  14.944  66.065  1.00  0.00     0.159 HD
ATOM     27  OD1 ASN A 142      -6.903  16.618  65.120  1.00 51.97    -0.274 OA
ENDBRANCH  22  23
ENDBRANCH  21  22
END_RES ASN A 142
BEGIN_RES LEU A  27
REMARK  2 active torsions:
REMARK  status: ('A' for Active; 'I' for Inactive)
REMARK    9  A    between atoms: CA   and  CB  
REMARK   10  A    between atoms: CB   and  CG  
ROOT
ATOM     28  CA  LEU A  27     -11.471  23.771  64.549  1.00 37.04     0.177 C 
ENDROOT
BRANCH  28  29
ATOM     29  CB  LEU A  27     -12.225  22.902  65.570  1.00 37.70     0.038 C 
BRANCH  29  30
ATOM     30  CG  LEU A  27     -12.596  23.431  66.955  1.00 36.32    -0.020 C 
ATOM     31  CD1 LEU A  27     -13.753  24.415  66.887  1.00 32.79     0.009 C 
ATOM     32  CD2 LEU A  27     -12.947  22.262  67.863  1.00 31.17     0.009 C 
ENDBRANCH  29  30
ENDBRANCH  28  29
END_RES LEU A  27
BEGIN_RES MET A  49
REMARK  3 active torsions:
REMARK  status: ('A' for Active; 'I' for Inactive)
REMARK   11  A    between atoms: CA   and  CB  
REMARK   12  A    between atoms: CB   and  CG  
REMARK   13  A    between atoms: CG   and  SD  
ROOT
ATOM     33  CA  MET A  49      -9.418  15.600  76.823  1.00 61.58     0.177 C 
ENDROOT
BRANCH  33  34
ATOM     34  CB  MET A  49      -8.930  15.410  75.386  1.00 62.15     0.045 C 
BRANCH  34  35
ATOM     35  CG  MET A  49      -9.608  16.332  74.385  1.00 60.24     0.076 C 
BRANCH  35  36
ATOM     36  SD  MET A  49     -11.259  16.847  74.896  1.00 77.15    -0.173 SA
ATOM     37  CE  MET A  49     -12.243  15.485  74.274  1.00 60.34     0.089 C 
ENDBRANCH  35  36
ENDBRANCH  34  35
ENDBRANCH  33  34
END_RES MET A  49
BEGIN_RES GLU A 166
REMARK  3 active torsions:
REMARK  status: ('A' for Active; 'I' for Inactive)
REMARK   14  A    between atoms: CA   and  CB  
REMARK   15  A    between atoms: CB   and  CG  
REMARK   16  A    between atoms: CG   and  CD  
ROOT
ATOM     38  CA  GLU A 166     -14.746   9.219  66.167  1.00 28.52     0.177 C 
ENDROOT
BRANCH  38  39
ATOM     39  CB  GLU A 166     -13.578   9.064  65.189  1.00 29.90     0.045 C 
BRANCH  39  40
ATOM     40  CG  GLU A 166     -12.415  10.013  65.404  1.00 36.08     0.116 C 
BRANCH  40  41
ATOM     41  CD  GLU A 166     -12.359  11.093  64.340  1.00 45.17     0.172 C 
ATOM     42  OE2 GLU A 166     -13.116  12.081  64.454  1.00 40.54    -0.648 OA
ATOM     43  OE1 GLU A 166     -11.551  10.962  63.395  1.00 50.70    -0.648 OA
ENDBRANCH  40  41
ENDBRANCH  39  40
ENDBRANCH  38  39
END_RES GLU A 166
BEGIN_RES HIS A 163
REMARK  2 active torsions:
REMARK  status: ('A' for Active; 'I' for Inactive)
REMARK   17  A    between atoms: CA   and  CB  
REMARK   18  A    between atoms: CB   and  CG  
ROOT
ATOM     44  CA  HIS A 163     -19.055  16.637  64.100  1.00 27.27     0.182 C 
ENDROOT
BRANCH  44  45
ATOM     45  CB  HIS A 163     -18.129  16.377  62.914  1.00 26.00     0.093 C 
BRANCH  45  46
ATOM     46  CG  HIS A 163     -17.085  15.341  63.188  1.00 26.66     0.028 A 
ATOM     47  ND1 HIS A 163     -15.742  15.639  63.252  1.00 26.97    -0.354 N 
ATOM     48  CE1 HIS A 163     -15.059  14.536  63.500  1.00 30.44     0.180 A 
ATOM     49  HD1 HIS A 163     -15.337  16.567  63.126  1.00  0.00     0.166 HD
ATOM     50  NE2 HIS A 163     -15.912  13.532  63.595  1.00 30.00    -0.360 N 
ATOM     51  CD2 HIS A 163     -17.186  14.008  63.404  1.00 29.24     0.114 A 
ATOM     52  HE2 HIS A 163     -15.664  12.560  63.781  1.00  0.00     0.166 HD
ENDBRANCH  45  46
ENDBRANCH  44  45
END_RES HIS A 163
BEGIN_RES HIS A 172
REMARK  2 active torsions:
REMARK  status: ('A' for Active; 'I' for Inactive)
REMARK   19  A    between atoms: CA   and  CB  
REMARK   20  A    between atoms: CB   and  CG  
ROOT
ATOM     53  CA  HIS A 172     -18.444   9.111  64.049  1.00 29.85     0.182 C 
ENDROOT
BRANCH  53  54
ATOM     54  CB  HIS A 172     -18.188  10.085  62.898  1.00 26.76     0.093 C 
BRANCH  54  55
ATOM     55  CG  HIS A 172     -16.863   9.886  62.230  1.00 28.76     0.028 A 
ATOM     56  CD2 HIS A 172     -15.610  10.215  62.622  1.00 29.36     0.114 A 
ATOM     57  NE2 HIS A 172     -14.752   9.792  61.635  1.00 33.77    -0.360 N 
ATOM     58  CE1 HIS A 172     -15.455   9.219  60.673  1.00 32.44     0.180 A 
ATOM     59  HE2 HIS A 172     -13.739   9.903  61.644  1.00  0.00     0.166 HD
ATOM     60  ND1 HIS A 172     -16.732   9.259  61.009  1.00 29.32    -0.354 N 
ATOM     61  HD1 HIS A 172     -17.501   8.885  60.453  1.00  0.00     0.166 HD
ENDBRANCH  54  55
ENDBRANCH  53  54
END_RES HIS A 172
BEGIN_RES THR A  26
REMARK  2 active torsions:
REMARK  status: ('A' for Active; 'I' for Inactive)
REMARK   21  A    between atoms: CA   and  CB  
REMARK   22  A    between atoms: CB   and  OG1 
ROOT
ATOM     62  CA  THR A  26      -8.224  25.031  66.060  1.00 43.98     0.205 C 
ENDROOT
BRANCH  62  63
ATOM     63  CB  THR A  26      -7.184  25.490  65.034  1.00 45.90     0.146 C 
ATOM     64  CG2 THR A  26      -7.853  26.079  63.790  1.00 47.20     0.042 C 
BRANCH  63  65
ATOM     65  OG1 THR A  26      -6.319  26.466  65.624  1.00 50.51    -0.393 OA
ATOM     66  HG1 THR A  26      -6.338  26.385  66.570  1.00  0.00     0.210 HD
ENDBRANCH  63  65
ENDBRANCH  62  63
END_RES THR A  26
ENDMDL
MODEL 7
REMARK VINA RESULT:      -6.3      1.829      3.354
REMARK  6 active torsions:
REMARK  status: ('A' for Active; 'I' for Inactive)
REMARK    1  A    between atoms: C1_2  and  N1_3 
REMARK    2  A    between atoms: C1_2  and  N2_10 
REMARK    3  A    between atoms: N1_3  and  C2_4 
REMARK    4  A    between atoms: C5_8  and  O2_9 
REMARK    5  A    between atoms: C9_15  and  C10_16 
REMARK    6  A    between atoms: C10_16  and  C11_17 
ROOT
HETATM    1  O1  UNL     1      -8.622  16.225  68.629  1.00  0.00    -0.247 OA
HETATM    2  C1  UNL     1      -9.838  16.256  68.201  1.00  0.00     0.319 C 
ENDROOT
BRANCH   2   3
HETATM    3  N1  UNL     1     -10.629  17.409  68.389  1.00  0.00    -0.335 N 
HETATM    4  H1  UNL     1     -11.314  17.438  69.162  1.00  0.00     0.164 HD
BRANCH   3   5
HETATM    5  C2  UNL     1     -10.547  18.583  67.552  1.00  0.00     0.125 C 
HETATM    6  C3  UNL     1      -9.829  18.235  66.307  1.00  0.00     0.101 C 
HETATM    7  S1  UNL     1      -8.229  19.127  66.392  1.00  0.00    -0.164 SA
HETATM    8  C4  UNL     1      -8.467  19.744  68.099  1.00  0.00     0.107 C 
HETATM    9  C5  UNL     1      -9.958  19.766  68.201  1.00  0.00     0.151 C 
BRANCH   9  10
HETATM   10  O2  UNL     1     -10.286  19.879  69.544  1.00  0.00    -0.393 OA
HETATM   11  H8  UNL     1     -11.185  20.332  69.640  1.00  0.00     0.210 HD
ENDBRANCH   9  10
ENDBRANCH   3   5
ENDBRANCH   2   3
BRANCH   2  12
HETATM   12  N2  UNL     1     -10.304  15.095  67.555  1.00  0.00    -0.325 N 
HETATM   13  C6  UNL     1      -9.588  14.393  66.526  1.00  0.00     0.154 C 
HETATM   14  C7  UNL     1     -10.414  14.584  65.244  1.00  0.00     0.187 C 
HETATM   15  O3  UNL     1     -11.751  14.411  65.504  1.00  0.00    -0.387 OA
HETATM   16  C8  UNL     1     -12.012  13.707  66.678  1.00  0.00     0.193 C 
HETATM   17  C9  UNL     1     -11.608  14.509  67.904  1.00  0.00     0.117 C 
BRANCH  17  18
HETATM   18  C10 UNL     1     -11.398  13.556  69.039  1.00  0.00     0.066 C 
BRANCH  18  19
HETATM   19  C11 UNL     1     -12.208  13.904  70.229  1.00  0.00    -0.056 A 
HETATM   20  C12 UNL     1     -12.593  12.901  71.128  1.00  0.00     0.007 A 
HETATM   21  C13 UNL     1     -13.347  13.161  72.249  1.00  0.00     0.001 A 
HETATM   22  C14 UNL     1     -13.719  14.471  72.463  1.00  0.00     0.000 A 
HETATM   23  C15 UNL     1     -13.359  15.481  71.603  1.00  0.00     0.001 A 
HETATM   24  C16 UNL     1     -12.611  15.186  70.502  1.00  0.00     0.007 A 
ENDBRANCH  18  19
ENDBRANCH  17  18
ENDBRANCH   2  12
TORSDOF 4
BEGIN_RES HIS A  41
REMARK  2 active torsions:
REMARK  status: ('A' for Active; 'I' for Inactive)
REMARK    1  A    between atoms: CA   and  CB  
REMARK    2  A    between atoms: CB   and  CG  
ROOT
ATOM      1  CA  HIS A  41     -13.820  21.037  73.265  1.00 38.89     0.182 C 
ENDROOT
BRANCH   1   2
ATOM      2  CB  HIS A  41     -13.705  19.545  72.937  1.00 42.38     0.093 C 
BRANCH   2   3
ATOM      3  CG  HIS A  41     -14.045  19.205  71.520  1.00 37.90     0.028 A 
ATOM      4  CD2 HIS A  41     -15.142  18.624  70.979  1.00 37.33     0.114 A 
ATOM      5  NE2 HIS A  41     -14.936  18.555  69.623  1.00 41.88    -0.360 N 
ATOM      6  CE1 HIS A  41     -13.756  19.079  69.341  1.00 41.55     0.180 A 
ATOM      7  HE2 HIS A  41     -15.588  18.161  68.944  1.00  0.00     0.166 HD
ATOM      8  ND1 HIS A  41     -13.199  19.482  70.468  1.00 36.57    -0.354 N 
ATOM      9  HD1 HIS A  41     -12.286  19.929  70.547  1.00  0.00     0.166 HD
ENDBRANCH   2   3
ENDBRANCH   1   2
END_RES HIS A  41
BEGIN_RES CYS A 145
REMARK  1 active torsions:
REMARK  status: ('A' for Active; 'I' for Inactive)
REMARK    3  A    between atoms: CA   and  CB  
ROOT
ATOM     10  CA  CYS A 145     -14.607  19.162  64.101  1.00 29.71     0.186 C 
ENDROOT
BRANCH  10  11
ATOM     11  CB  CYS A 145     -14.100  19.110  65.541  1.00 31.75     0.120 C 
ATOM     12  SG  CYS A 145     -13.710  17.445  66.111  1.00 39.68    -0.095 SA
ENDBRANCH  10  11
END_RES CYS A 145
BEGIN_RES GLN A 189
REMARK  3 active torsions:
REMARK  status: ('A' for Active; 'I' for Inactive)
REMARK    4  A    between atoms: CA   and  CB  
REMARK    5  A    between atoms: CB   and  CG  
REMARK    6  A    between atoms: CG   and  CD  
REMARK       I    between atoms: CD   and  NE2 
ROOT
ATOM     13  CA  GLN A 189     -11.641  10.633  75.105  1.00 38.41     0.177 C 
ENDROOT
BRANCH  13  14
ATOM     14  CB  GLN A 189     -10.259  11.109  74.679  1.00 37.59     0.044 C 
BRANCH  14  15
ATOM     15  CG  GLN A 189     -10.085  11.196  73.172  1.00 45.60     0.105 C 
BRANCH  15  16
ATOM     16  CD  GLN A 189      -9.010  12.182  72.761  1.00 47.27     0.215 C 
ATOM     17  NE2 GLN A 189      -7.756  11.839  73.035  1.00 44.45    -0.370 N 
ATOM     18 2HE2 GLN A 189      -7.513  10.963  73.497  1.00  0.00     0.159 HD
ATOM     19 1HE2 GLN A 189      -7.032  12.503  72.759  1.00  0.00     0.159 HD
ATOM     20  OE1 GLN A 189      -9.304  13.240  72.204  1.00 41.09    -0.274 OA
ENDBRANCH  15  16
ENDBRANCH  14  15
ENDBRANCH  13  14
END_RES GLN A 189
BEGIN_RES ASN A 142
REMARK  2 active torsions:
REMARK  status: ('A' for Active; 'I' for Inactive)
REMARK    7  A    between atoms: CA   and  CB  
REMARK    8  A    between atoms: CB   and  CG  
REMARK       I    between atoms: CG   and  ND2 
ROOT
ATOM     21  CA  ASN A 142      -7.978  15.712  62.559  1.00 43.18     0.185 C 
ENDROOT
BRANCH  21  22
ATOM     22  CB  ASN A 142      -6.512  15.609  62.983  1.00 38.76     0.137 C 
BRANCH  22  23
ATOM     23  CG  ASN A 142      -6.348  15.141  64.417  1.00 50.71     0.217 C 
ATOM     24  ND2 ASN A 142      -6.286  16.089  65.345  1.00 55.08    -0.370 N 
ATOM     25 2HD2 ASN A 142      -6.342  17.082  65.120  1.00  0.00     0.159 HD
ATOM     26 1HD2 ASN A 142      -6.175  15.774  66.309  1.00  0.00     0.159 HD
ATOM     27  OD1 ASN A 142      -6.280  13.943  64.688  1.00 51.97    -0.274 OA
ENDBRANCH  22  23
ENDBRANCH  21  22
END_RES ASN A 142
BEGIN_RES LEU A  27
REMARK  2 active torsions:
REMARK  status: ('A' for Active; 'I' for Inactive)
REMARK    9  A    between atoms: CA   and  CB  
REMARK   10  A    between atoms: CB   and  CG  
ROOT
ATOM     28  CA  LEU A  27     -11.471  23.771  64.549  1.00 37.04     0.177 C 
ENDROOT
BRANCH  28  29
ATOM     29  CB  LEU A  27     -12.225  22.902  65.570  1.00 37.70     0.038 C 
BRANCH  29  30
ATOM     30  CG  LEU A  27     -12.565  23.419  66.968  1.00 36.32    -0.020 C 
ATOM     31  CD1 LEU A  27     -13.799  24.307  66.951  1.00 32.79     0.009 C 
ATOM     32  CD2 LEU A  27     -12.774  22.238  67.904  1.00 31.17     0.009 C 
ENDBRANCH  29  30
ENDBRANCH  28  29
END_RES LEU A  27
BEGIN_RES MET A  49
REMARK  3 active torsions:
REMARK  status: ('A' for Active; 'I' for Inactive)
REMARK   11  A    between atoms: CA   and  CB  
REMARK   12  A    between atoms: CB   and  CG  
REMARK   13  A    between atoms: CG   and  SD  
ROOT
ATOM     33  CA  MET A  49      -9.418  15.600  76.823  1.00 61.58     0.177 C 
ENDROOT
BRANCH  33  34
ATOM     34  CB  MET A  49      -8.930  15.410  75.386  1.00 62.15     0.045 C 
BRANCH  34  35
ATOM     35  CG  MET A  49      -9.863  16.003  74.342  1.00 60.24     0.076 C 
BRANCH  35  36
ATOM     36  SD  MET A  49      -9.243  17.532  73.617  1.00 77.15    -0.173 SA
ATOM     37  CE  MET A  49     -10.437  17.790  72.306  1.00 60.34     0.089 C 
ENDBRANCH  35  36
ENDBRANCH  34  35
ENDBRANCH  33  34
END_RES MET A  49
BEGIN_RES GLU A 166
REMARK  3 active torsions:
REMARK  status: ('A' for Active; 'I' for Inactive)
REMARK   14  A    between atoms: CA   and  CB  
REMARK   15  A    between atoms: CB   and  CG  
REMARK   16  A    between atoms: CG   and  CD  
ROOT
ATOM     38  CA  GLU A 166     -14.746   9.219  66.167  1.00 28.52     0.177 C 
ENDROOT
BRANCH  38  39
ATOM     39  CB  GLU A 166     -13.578   9.064  65.189  1.00 29.90     0.045 C 
BRANCH  39  40
ATOM     40  CG  GLU A 166     -12.431  10.037  65.382  1.00 36.08     0.116 C 
BRANCH  40  41
ATOM     41  CD  GLU A 166     -12.386  11.086  64.286  1.00 45.17     0.172 C 
ATOM     42  OE2 GLU A 166     -11.318  11.242  63.656  1.00 40.54    -0.648 OA
ATOM     43  OE1 GLU A 166     -13.419  11.746  64.046  1.00 50.70    -0.648 OA
ENDBRANCH  40  41
ENDBRANCH  39  40
ENDBRANCH  38  39
END_RES GLU A 166
BEGIN_RES HIS A 163
REMARK  2 active torsions:
REMARK  status: ('A' for Active; 'I' for Inactive)
REMARK   17  A    between atoms: CA   and  CB  
REMARK   18  A    between atoms: CB   and  CG  
ROOT
ATOM     44  CA  HIS A 163     -19.055  16.637  64.100  1.00 27.27     0.182 C 
ENDROOT
BRANCH  44  45
ATOM     45  CB  HIS A 163     -18.129  16.377  62.914  1.00 26.00     0.093 C 
BRANCH  45  46
ATOM     46  CG  HIS A 163     -17.086  15.340  63.188  1.00 26.66     0.028 A 
ATOM     47  ND1 HIS A 163     -15.745  15.642  63.280  1.00 26.97    -0.354 N 
ATOM     48  CE1 HIS A 163     -15.062  14.536  63.520  1.00 30.44     0.180 A 
ATOM     49  HD1 HIS A 163     -15.342  16.573  63.178  1.00  0.00     0.166 HD
ATOM     50  NE2 HIS A 163     -15.913  13.528  63.583  1.00 30.00    -0.360 N 
ATOM     51  CD2 HIS A 163     -17.186  14.003  63.377  1.00 29.24     0.114 A 
ATOM     52  HE2 HIS A 163     -15.665  12.553  63.755  1.00  0.00     0.166 HD
ENDBRANCH  45  46
ENDBRANCH  44  45
END_RES HIS A 163
BEGIN_RES HIS A 172
REMARK  2 active torsions:
REMARK  status: ('A' for Active; 'I' for Inactive)
REMARK   19  A    between atoms: CA   and  CB  
REMARK   20  A    between atoms: CB   and  CG  
ROOT
ATOM     53  CA  HIS A 172     -18.444   9.111  64.049  1.00 29.85     0.182 C 
ENDROOT
BRANCH  53  54
ATOM     54  CB  HIS A 172     -18.188  10.085  62.898  1.00 26.76     0.093 C 
BRANCH  54  55
ATOM     55  CG  HIS A 172     -16.942   9.783  62.126  1.00 28.76     0.028 A 
ATOM     56  CD2 HIS A 172     -16.759   9.161  60.937  1.00 29.36     0.114 A 
ATOM     57  NE2 HIS A 172     -15.409   9.160  60.683  1.00 33.77    -0.360 N 
ATOM     58  CE1 HIS A 172     -14.785   9.764  61.679  1.00 32.44     0.180 A 
ATOM     59  HE2 HIS A 172     -14.962   8.758  59.860  1.00  0.00     0.166 HD
ATOM     60  ND1 HIS A 172     -15.688  10.153  62.562  1.00 29.32    -0.354 N 
ATOM     61  HD1 HIS A 172     -15.488  10.650  63.430  1.00  0.00     0.166 HD
ENDBRANCH  54  55
ENDBRANCH  53  54
END_RES HIS A 172
BEGIN_RES THR A  26
REMARK  2 active torsions:
REMARK  status: ('A' for Active; 'I' for Inactive)
REMARK   21  A    between atoms: CA   and  CB  
REMARK   22  A    between atoms: CB   and  OG1 
ROOT
ATOM     62  CA  THR A  26      -8.224  25.031  66.060  1.00 43.98     0.205 C 
ENDROOT
BRANCH  62  63
ATOM     63  CB  THR A  26      -7.184  25.490  65.034  1.00 45.90     0.146 C 
ATOM     64  CG2 THR A  26      -7.853  26.094  63.798  1.00 47.20     0.042 C 
BRANCH  63  65
ATOM     65  OG1 THR A  26      -6.308  26.454  65.629  1.00 50.51    -0.393 OA
ATOM     66  HG1 THR A  26      -5.656  26.013  66.160  1.00  0.00     0.210 HD
ENDBRANCH  63  65
ENDBRANCH  62  63
END_RES THR A  26
ENDMDL
MODEL 8
REMARK VINA RESULT:      -6.2      1.619      3.088
REMARK  6 active torsions:
REMARK  status: ('A' for Active; 'I' for Inactive)
REMARK    1  A    between atoms: C1_2  and  N1_3 
REMARK    2  A    between atoms: C1_2  and  N2_10 
REMARK    3  A    between atoms: N1_3  and  C2_4 
REMARK    4  A    between atoms: C5_8  and  O2_9 
REMARK    5  A    between atoms: C9_15  and  C10_16 
REMARK    6  A    between atoms: C10_16  and  C11_17 
ROOT
HETATM    1  O1  UNL     1      -8.807  14.469  67.985  1.00  0.00    -0.247 OA
HETATM    2  C1  UNL     1     -10.018  14.913  68.002  1.00  0.00     0.319 C 
ENDROOT
BRANCH   2   3
HETATM    3  N1  UNL     1     -10.706  15.150  66.793  1.00  0.00    -0.335 N 
HETATM    4  H1  UNL     1     -10.533  16.023  66.269  1.00  0.00     0.164 HD
BRANCH   3   5
HETATM    5  C2  UNL     1     -11.663  14.230  66.222  1.00  0.00     0.125 C 
HETATM    6  C3  UNL     1     -11.525  12.918  66.890  1.00  0.00     0.101 C 
HETATM    7  S1  UNL     1     -10.838  11.787  65.620  1.00  0.00    -0.164 SA
HETATM    8  C4  UNL     1     -10.575  13.086  64.357  1.00  0.00     0.107 C 
HETATM    9  C5  UNL     1     -11.598  14.100  64.757  1.00  0.00     0.151 C 
BRANCH   9  10
HETATM   10  O2  UNL     1     -11.288  15.287  64.111  1.00  0.00    -0.393 OA
HETATM   11  H8  UNL     1     -10.413  15.188  63.614  1.00  0.00     0.210 HD
ENDBRANCH   9  10
ENDBRANCH   3   5
ENDBRANCH   2   3
BRANCH   2  12
HETATM   12  N2  UNL     1     -10.584  15.138  69.271  1.00  0.00    -0.325 N 
HETATM   13  C6  UNL     1     -10.548  14.198  70.357  1.00  0.00     0.154 C 
HETATM   14  C7  UNL     1     -12.004  13.753  70.568  1.00  0.00     0.187 C 
HETATM   15  O3  UNL     1     -12.848  14.834  70.516  1.00  0.00    -0.387 OA
HETATM   16  C8  UNL     1     -12.213  16.057  70.724  1.00  0.00     0.193 C 
HETATM   17  C9  UNL     1     -11.280  16.398  69.574  1.00  0.00     0.117 C 
BRANCH  17  18
HETATM   18  C10 UNL     1     -10.265  17.380  70.069  1.00  0.00     0.066 C 
BRANCH  18  19
HETATM   19  C11 UNL     1      -9.793  18.295  69.005  1.00  0.00    -0.056 A 
HETATM   20  C12 UNL     1      -8.496  18.820  69.062  1.00  0.00     0.007 A 
HETATM   21  C13 UNL     1      -8.002  19.676  68.104  1.00  0.00     0.001 A 
HETATM   22  C14 UNL     1      -8.845  20.007  67.065  1.00  0.00     0.000 A 
HETATM   23  C15 UNL     1     -10.123  19.510  66.977  1.00  0.00     0.001 A 
HETATM   24  C16 UNL     1     -10.580  18.664  67.944  1.00  0.00     0.007 A 
ENDBRANCH  18  19
ENDBRANCH  17  18
ENDBRANCH   2  12
TORSDOF 4
BEGIN_RES HIS A  41
REMARK  2 active torsions:
REMARK  status: ('A' for Active; 'I' for Inactive)
REMARK    1  A    between atoms: CA   and  CB  
REMARK    2  A    between atoms: CB   and  CG  
ROOT
ATOM      1  CA  HIS A  41     -13.820  21.037  73.265  1.00 38.89     0.182 C 
ENDROOT
BRANCH   1   2
ATOM      2  CB  HIS A  41     -13.705  19.545  72.937  1.00 42.38     0.093 C 
BRANCH   2   3
ATOM      3  CG  HIS A  41     -14.066  19.202  71.526  1.00 37.90     0.028 A 
ATOM      4  CD2 HIS A  41     -15.115  18.516  71.014  1.00 37.33     0.114 A 
ATOM      5  NE2 HIS A  41     -14.961  18.501  69.649  1.00 41.88    -0.360 N 
ATOM      6  CE1 HIS A  41     -13.859  19.159  69.334  1.00 41.55     0.180 A 
ATOM      7  HE2 HIS A  41     -15.594  18.054  68.986  1.00  0.00     0.166 HD
ATOM      8  ND1 HIS A  41     -13.302  19.595  70.449  1.00 36.57    -0.354 N 
ATOM      9  HD1 HIS A  41     -12.440  20.138  70.503  1.00  0.00     0.166 HD
ENDBRANCH   2   3
ENDBRANCH   1   2
END_RES HIS A  41
BEGIN_RES CYS A 145
REMARK  1 active torsions:
REMARK  status: ('A' for Active; 'I' for Inactive)
REMARK    3  A    between atoms: CA   and  CB  
ROOT
ATOM     10  CA  CYS A 145     -14.607  19.162  64.101  1.00 29.71     0.186 C 
ENDROOT
BRANCH  10  11
ATOM     11  CB  CYS A 145     -14.100  19.110  65.541  1.00 31.75     0.120 C 
ATOM     12  SG  CYS A 145     -13.655  17.453  66.092  1.00 39.68    -0.095 SA
ENDBRANCH  10  11
END_RES CYS A 145
BEGIN_RES GLN A 189
REMARK  3 active torsions:
REMARK  status: ('A' for Active; 'I' for Inactive)
REMARK    4  A    between atoms: CA   and  CB  
REMARK    5  A    between atoms: CB   and  CG  
REMARK    6  A    between atoms: CG   and  CD  
REMARK       I    between atoms: CD   and  NE2 
ROOT
ATOM     13  CA  GLN A 189     -11.641  10.633  75.105  1.00 38.41     0.177 C 
ENDROOT
BRANCH  13  14
ATOM     14  CB  GLN A 189     -10.259  11.109  74.679  1.00 37.59     0.044 C 
BRANCH  14  15
ATOM     15  CG  GLN A 189     -10.118  11.296  73.177  1.00 45.60     0.105 C 
BRANCH  15  16
ATOM     16  CD  GLN A 189     -10.544  10.072  72.392  1.00 47.27     0.215 C 
ATOM     17  NE2 GLN A 189     -11.553  10.234  71.542  1.00 44.45    -0.370 N 
ATOM     18 2HE2 GLN A 189     -12.026  11.128  71.415  1.00  0.00     0.159 HD
ATOM     19 1HE2 GLN A 189     -11.840   9.410  71.014  1.00  0.00     0.159 HD
ATOM     20  OE1 GLN A 189      -9.972   8.992  72.547  1.00 41.09    -0.274 OA
ENDBRANCH  15  16
ENDBRANCH  14  15
ENDBRANCH  13  14
END_RES GLN A 189
BEGIN_RES ASN A 142
REMARK  2 active torsions:
REMARK  status: ('A' for Active; 'I' for Inactive)
REMARK    7  A    between atoms: CA   and  CB  
REMARK    8  A    between atoms: CB   and  CG  
REMARK       I    between atoms: CG   and  ND2 
ROOT
ATOM     21  CA  ASN A 142      -7.978  15.712  62.559  1.00 43.18     0.185 C 
ENDROOT
BRANCH  21  22
ATOM     22  CB  ASN A 142      -6.512  15.609  62.983  1.00 38.76     0.137 C 
BRANCH  22  23
ATOM     23  CG  ASN A 142      -6.350  15.243  64.446  1.00 50.71     0.217 C 
ATOM     24  ND2 ASN A 142      -7.468  15.084  65.143  1.00 55.08    -0.370 N 
ATOM     25 2HD2 ASN A 142      -8.394  15.199  64.730  1.00  0.00     0.159 HD
ATOM     26 1HD2 ASN A 142      -7.359  14.838  66.128  1.00  0.00     0.159 HD
ATOM     27  OD1 ASN A 142      -5.233  15.104  64.944  1.00 51.97    -0.274 OA
ENDBRANCH  22  23
ENDBRANCH  21  22
END_RES ASN A 142
BEGIN_RES LEU A  27
REMARK  2 active torsions:
REMARK  status: ('A' for Active; 'I' for Inactive)
REMARK    9  A    between atoms: CA   and  CB  
REMARK   10  A    between atoms: CB   and  CG  
ROOT
ATOM     28  CA  LEU A  27     -11.471  23.771  64.549  1.00 37.04     0.177 C 
ENDROOT
BRANCH  28  29
ATOM     29  CB  LEU A  27     -12.225  22.902  65.570  1.00 37.70     0.038 C 
BRANCH  29  30
ATOM     30  CG  LEU A  27     -12.509  23.395  66.989  1.00 36.32    -0.020 C 
ATOM     31  CD1 LEU A  27     -13.866  24.074  67.083  1.00 32.79     0.009 C 
ATOM     32  CD2 LEU A  27     -12.436  22.222  67.954  1.00 31.17     0.009 C 
ENDBRANCH  29  30
ENDBRANCH  28  29
END_RES LEU A  27
BEGIN_RES MET A  49
REMARK  3 active torsions:
REMARK  status: ('A' for Active; 'I' for Inactive)
REMARK   11  A    between atoms: CA   and  CB  
REMARK   12  A    between atoms: CB   and  CG  
REMARK   13  A    between atoms: CG   and  SD  
ROOT
ATOM     33  CA  MET A  49      -9.418  15.600  76.823  1.00 61.58     0.177 C 
ENDROOT
BRANCH  33  34
ATOM     34  CB  MET A  49      -8.930  15.410  75.386  1.00 62.15     0.045 C 
BRANCH  34  35
ATOM     35  CG  MET A  49      -9.666  16.273  74.374  1.00 60.24     0.076 C 
BRANCH  35  36
ATOM     36  SD  MET A  49     -11.247  16.893  74.980  1.00 77.15    -0.173 SA
ATOM     37  CE  MET A  49     -12.354  15.603  74.411  1.00 60.34     0.089 C 
ENDBRANCH  35  36
ENDBRANCH  34  35
ENDBRANCH  33  34
END_RES MET A  49
BEGIN_RES GLU A 166
REMARK  3 active torsions:
REMARK  status: ('A' for Active; 'I' for Inactive)
REMARK   14  A    between atoms: CA   and  CB  
REMARK   15  A    between atoms: CB   and  CG  
REMARK   16  A    between atoms: CG   and  CD  
ROOT
ATOM     38  CA  GLU A 166     -14.746   9.219  66.167  1.00 28.52     0.177 C 
ENDROOT
BRANCH  38  39
ATOM     39  CB  GLU A 166     -13.578   9.064  65.189  1.00 29.90     0.045 C 
BRANCH  39  40
ATOM     40  CG  GLU A 166     -13.599   7.808  64.339  1.00 36.08     0.116 C 
BRANCH  40  41
ATOM     41  CD  GLU A 166     -12.466   7.786  63.330  1.00 45.17     0.172 C 
ATOM     42  OE2 GLU A 166     -12.141   8.858  62.778  1.00 40.54    -0.648 OA
ATOM     43  OE1 GLU A 166     -11.893   6.699  63.097  1.00 50.70    -0.648 OA
ENDBRANCH  40  41
ENDBRANCH  39  40
ENDBRANCH  38  39
END_RES GLU A 166
BEGIN_RES HIS A 163
REMARK  2 active torsions:
REMARK  status: ('A' for Active; 'I' for Inactive)
REMARK   17  A    between atoms: CA   and  CB  
REMARK   18  A    between atoms: CB   and  CG  
ROOT
ATOM     44  CA  HIS A 163     -19.055  16.637  64.100  1.00 27.27     0.182 C 
ENDROOT
BRANCH  44  45
ATOM     45  CB  HIS A 163     -18.129  16.377  62.914  1.00 26.00     0.093 C 
BRANCH  45  46
ATOM     46  CG  HIS A 163     -17.102  15.322  63.180  1.00 26.66     0.028 A 
ATOM     47  ND1 HIS A 163     -15.755  15.600  63.254  1.00 26.97    -0.354 N 
ATOM     48  CE1 HIS A 163     -15.089  14.483  63.491  1.00 30.44     0.180 A 
ATOM     49  HD1 HIS A 163     -15.336  16.523  63.145  1.00  0.00     0.166 HD
ATOM     50  NE2 HIS A 163     -15.958  13.490  63.567  1.00 30.00    -0.360 N 
ATOM     51  CD2 HIS A 163     -17.223  13.988  63.375  1.00 29.24     0.114 A 
ATOM     52  HE2 HIS A 163     -15.725  12.512  63.740  1.00  0.00     0.166 HD
ENDBRANCH  45  46
ENDBRANCH  44  45
END_RES HIS A 163
BEGIN_RES HIS A 172
REMARK  2 active torsions:
REMARK  status: ('A' for Active; 'I' for Inactive)
REMARK   19  A    between atoms: CA   and  CB  
REMARK   20  A    between atoms: CB   and  CG  
ROOT
ATOM     53  CA  HIS A 172     -18.444   9.111  64.049  1.00 29.85     0.182 C 
ENDROOT
BRANCH  53  54
ATOM     54  CB  HIS A 172     -18.188  10.085  62.898  1.00 26.76     0.093 C 
BRANCH  54  55
ATOM     55  CG  HIS A 172     -16.876   9.867  62.211  1.00 28.76     0.028 A 
ATOM     56  CD2 HIS A 172     -15.619  10.236  62.553  1.00 29.36     0.114 A 
ATOM     57  NE2 HIS A 172     -14.778   9.769  61.572  1.00 33.77    -0.360 N 
ATOM     58  CE1 HIS A 172     -15.494   9.131  60.662  1.00 32.44     0.180 A 
ATOM     59  HE2 HIS A 172     -13.767   9.895  61.549  1.00  0.00     0.166 HD
ATOM     60  ND1 HIS A 172     -16.763   9.172  61.026  1.00 29.32    -0.354 N 
ATOM     61  HD1 HIS A 172     -17.539   8.755  60.511  1.00  0.00     0.166 HD
ENDBRANCH  54  55
ENDBRANCH  53  54
END_RES HIS A 172
BEGIN_RES THR A  26
REMARK  2 active torsions:
REMARK  status: ('A' for Active; 'I' for Inactive)
REMARK   21  A    between atoms: CA   and  CB  
REMARK   22  A    between atoms: CB   and  OG1 
ROOT
ATOM     62  CA  THR A  26      -8.224  25.031  66.060  1.00 43.98     0.205 C 
ENDROOT
BRANCH  62  63
ATOM     63  CB  THR A  26      -7.184  25.490  65.034  1.00 45.90     0.146 C 
ATOM     64  CG2 THR A  26      -7.853  26.096  63.798  1.00 47.20     0.042 C 
BRANCH  63  65
ATOM     65  OG1 THR A  26      -6.308  26.453  65.629  1.00 50.51    -0.393 OA
ATOM     66  HG1 THR A  26      -6.608  27.331  65.426  1.00  0.00     0.210 HD
ENDBRANCH  63  65
ENDBRANCH  62  63
END_RES THR A  26
ENDMDL
MODEL 9
REMARK VINA RESULT:      -6.2      1.737      3.624
REMARK  6 active torsions:
REMARK  status: ('A' for Active; 'I' for Inactive)
REMARK    1  A    between atoms: C1_2  and  N1_3 
REMARK    2  A    between atoms: C1_2  and  N2_10 
REMARK    3  A    between atoms: N1_3  and  C2_4 
REMARK    4  A    between atoms: C5_8  and  O2_9 
REMARK    5  A    between atoms: C9_15  and  C10_16 
REMARK    6  A    between atoms: C10_16  and  C11_17 
ROOT
HETATM    1  O1  UNL     1     -10.077  16.740  65.684  1.00  0.00    -0.247 OA
HETATM    2  C1  UNL     1      -9.713  16.459  66.888  1.00  0.00     0.319 C 
ENDROOT
BRANCH   2   3
HETATM    3  N1  UNL     1      -8.426  16.814  67.344  1.00  0.00    -0.335 N 
HETATM    4  H1  UNL     1      -7.700  16.086  67.443  1.00  0.00     0.164 HD
BRANCH   3   5
HETATM    5  C2  UNL     1      -8.042  18.163  67.692  1.00  0.00     0.125 C 
HETATM    6  C3  UNL     1      -8.972  18.675  68.721  1.00  0.00     0.101 C 
HETATM    7  S1  UNL     1      -9.949  19.989  67.895  1.00  0.00    -0.164 SA
HETATM    8  C4  UNL     1      -9.264  19.688  66.224  1.00  0.00     0.107 C 
HETATM    9  C5  UNL     1      -7.934  19.089  66.554  1.00  0.00     0.151 C 
BRANCH   9  10
HETATM   10  O2  UNL     1      -7.445  18.492  65.401  1.00  0.00    -0.393 OA
HETATM   11  H8  UNL     1      -6.455  18.679  65.312  1.00  0.00     0.210 HD
ENDBRANCH   9  10
ENDBRANCH   3   5
ENDBRANCH   2   3
BRANCH   2  12
HETATM   12  N2  UNL     1     -10.661  15.794  67.689  1.00  0.00    -0.325 N 
HETATM   13  C6  UNL     1     -11.499  16.438  68.663  1.00  0.00     0.154 C 
HETATM   14  C7  UNL     1     -11.024  15.914  70.028  1.00  0.00     0.187 C 
HETATM   15  O3  UNL     1     -10.811  14.559  69.974  1.00  0.00    -0.387 OA
HETATM   16  C8  UNL     1     -11.456  13.927  68.911  1.00  0.00     0.193 C 
HETATM   17  C9  UNL     1     -10.856  14.341  67.577  1.00  0.00     0.117 C 
BRANCH  17  18
HETATM   18  C10 UNL     1     -11.874  14.091  66.509  1.00  0.00     0.066 C 
BRANCH  18  19
HETATM   19  C11 UNL     1     -11.340  13.273  65.396  1.00  0.00    -0.056 A 
HETATM   20  C12 UNL     1     -12.215  12.525  64.598  1.00  0.00     0.007 A 
HETATM   21  C13 UNL     1     -11.778  11.745  63.552  1.00  0.00     0.001 A 
HETATM   22  C14 UNL     1     -10.421  11.723  63.310  1.00  0.00     0.000 A 
HETATM   23  C15 UNL     1      -9.534  12.444  64.073  1.00  0.00     0.001 A 
HETATM   24  C16 UNL     1     -10.002  13.207  65.101  1.00  0.00     0.007 A 
ENDBRANCH  18  19
ENDBRANCH  17  18
ENDBRANCH   2  12
TORSDOF 4
BEGIN_RES HIS A  41
REMARK  2 active torsions:
REMARK  status: ('A' for Active; 'I' for Inactive)
REMARK    1  A    between atoms: CA   and  CB  
REMARK    2  A    between atoms: CB   and  CG  
ROOT
ATOM      1  CA  HIS A  41     -13.820  21.037  73.265  1.00 38.89     0.182 C 
ENDROOT
BRANCH   1   2
ATOM      2  CB  HIS A  41     -13.705  19.545  72.937  1.00 42.38     0.093 C 
BRANCH   2   3
ATOM      3  CG  HIS A  41     -14.064  19.203  71.525  1.00 37.90     0.028 A 
ATOM      4  CD2 HIS A  41     -13.434  19.462  70.355  1.00 37.33     0.114 A 
ATOM      5  NE2 HIS A  41     -14.197  18.913  69.354  1.00 41.88    -0.360 N 
ATOM      6  CE1 HIS A  41     -15.255  18.331  69.891  1.00 41.55     0.180 A 
ATOM      7  HE2 HIS A  41     -13.982  18.949  68.358  1.00  0.00     0.166 HD
ATOM      8  ND1 HIS A  41     -15.197  18.489  71.201  1.00 36.57    -0.354 N 
ATOM      9  HD1 HIS A  41     -15.884  18.137  71.868  1.00  0.00     0.166 HD
ENDBRANCH   2   3
ENDBRANCH   1   2
END_RES HIS A  41
BEGIN_RES CYS A 145
REMARK  1 active torsions:
REMARK  status: ('A' for Active; 'I' for Inactive)
REMARK    3  A    between atoms: CA   and  CB  
ROOT
ATOM     10  CA  CYS A 145     -14.607  19.162  64.101  1.00 29.71     0.186 C 
ENDROOT
BRANCH  10  11
ATOM     11  CB  CYS A 145     -14.100  19.110  65.541  1.00 31.75     0.120 C 
ATOM     12  SG  CYS A 145     -13.687  17.448  66.103  1.00 39.68    -0.095 SA
ENDBRANCH  10  11
END_RES CYS A 145
BEGIN_RES GLN A 189
REMARK  3 active torsions:
REMARK  status: ('A' for Active; 'I' for Inactive)
REMARK    4  A    between atoms: CA   and  CB  
REMARK    5  A    between atoms: CB   and  CG  
REMARK    6  A    between atoms: CG   and  CD  
REMARK       I    between atoms: CD   and  NE2 
ROOT
ATOM     13  CA  GLN A 189     -11.641  10.633  75.105  1.00 38.41     0.177 C 
ENDROOT
BRANCH  13  14
ATOM     14  CB  GLN A 189     -10.259  11.109  74.679  1.00 37.59     0.044 C 
BRANCH  14  15
ATOM     15  CG  GLN A 189     -10.009  10.986  73.185  1.00 45.60     0.105 C 
BRANCH  15  16
ATOM     16  CD  GLN A 189     -10.827  11.967  72.371  1.00 47.27     0.215 C 
ATOM     17  NE2 GLN A 189     -10.530  13.254  72.519  1.00 44.45    -0.370 N 
ATOM     18 2HE2 GLN A 189      -9.794  13.580  73.144  1.00  0.00     0.159 HD
ATOM     19 1HE2 GLN A 189     -11.082  13.914  71.971  1.00  0.00     0.159 HD
ATOM     20  OE1 GLN A 189     -11.717  11.573  71.616  1.00 41.09    -0.274 OA
ENDBRANCH  15  16
ENDBRANCH  14  15
ENDBRANCH  13  14
END_RES GLN A 189
BEGIN_RES ASN A 142
REMARK  2 active torsions:
REMARK  status: ('A' for Active; 'I' for Inactive)
REMARK    7  A    between atoms: CA   and  CB  
REMARK    8  A    between atoms: CB   and  CG  
REMARK       I    between atoms: CG   and  ND2 
ROOT
ATOM     21  CA  ASN A 142      -7.978  15.712  62.559  1.00 43.18     0.185 C 
ENDROOT
BRANCH  21  22
ATOM     22  CB  ASN A 142      -6.512  15.609  62.983  1.00 38.76     0.137 C 
BRANCH  22  23
ATOM     23  CG  ASN A 142      -6.346  15.085  64.397  1.00 50.71     0.217 C 
ATOM     24  ND2 ASN A 142      -6.113  13.784  64.521  1.00 55.08    -0.370 N 
ATOM     25 2HD2 ASN A 142      -6.047  13.158  63.718  1.00  0.00     0.159 HD
ATOM     26 1HD2 ASN A 142      -6.002  13.431  65.472  1.00  0.00     0.159 HD
ATOM     27  OD1 ASN A 142      -6.426  15.839  65.366  1.00 51.97    -0.274 OA
ENDBRANCH  22  23
ENDBRANCH  21  22
END_RES ASN A 142
BEGIN_RES LEU A  27
REMARK  2 active torsions:
REMARK  status: ('A' for Active; 'I' for Inactive)
REMARK    9  A    between atoms: CA   and  CB  
REMARK   10  A    between atoms: CB   and  CG  
ROOT
ATOM     28  CA  LEU A  27     -11.471  23.771  64.549  1.00 37.04     0.177 C 
ENDROOT
BRANCH  28  29
ATOM     29  CB  LEU A  27     -12.225  22.902  65.570  1.00 37.70     0.038 C 
BRANCH  29  30
ATOM     30  CG  LEU A  27     -12.604  23.434  66.952  1.00 36.32    -0.020 C 
ATOM     31  CD1 LEU A  27     -13.714  24.470  66.867  1.00 32.79     0.009 C 
ATOM     32  CD2 LEU A  27     -13.029  22.274  67.839  1.00 31.17     0.009 C 
ENDBRANCH  29  30
ENDBRANCH  28  29
END_RES LEU A  27
BEGIN_RES MET A  49
REMARK  3 active torsions:
REMARK  status: ('A' for Active; 'I' for Inactive)
REMARK   11  A    between atoms: CA   and  CB  
REMARK   12  A    between atoms: CB   and  CG  
REMARK   13  A    between atoms: CG   and  SD  
ROOT
ATOM     33  CA  MET A  49      -9.418  15.600  76.823  1.00 61.58     0.177 C 
ENDROOT
BRANCH  33  34
ATOM     34  CB  MET A  49      -8.930  15.410  75.386  1.00 62.15     0.045 C 
BRANCH  34  35
ATOM     35  CG  MET A  49      -9.660  16.279  74.375  1.00 60.24     0.076 C 
BRANCH  35  36
ATOM     36  SD  MET A  49     -11.212  16.952  75.001  1.00 77.15    -0.173 SA
ATOM     37  CE  MET A  49     -12.369  15.703  74.443  1.00 60.34     0.089 C 
ENDBRANCH  35  36
ENDBRANCH  34  35
ENDBRANCH  33  34
END_RES MET A  49
BEGIN_RES GLU A 166
REMARK  3 active torsions:
REMARK  status: ('A' for Active; 'I' for Inactive)
REMARK   14  A    between atoms: CA   and  CB  
REMARK   15  A    between atoms: CB   and  CG  
REMARK   16  A    between atoms: CG   and  CD  
ROOT
ATOM     38  CA  GLU A 166     -14.746   9.219  66.167  1.00 28.52     0.177 C 
ENDROOT
BRANCH  38  39
ATOM     39  CB  GLU A 166     -13.578   9.064  65.189  1.00 29.90     0.045 C 
BRANCH  39  40
ATOM     40  CG  GLU A 166     -13.609   7.817  64.326  1.00 36.08     0.116 C 
BRANCH  40  41
ATOM     41  CD  GLU A 166     -12.477   7.797  63.316  1.00 45.17     0.172 C 
ATOM     42  OE2 GLU A 166     -11.326   8.083  63.707  1.00 40.54    -0.648 OA
ATOM     43  OE1 GLU A 166     -12.735   7.486  62.133  1.00 50.70    -0.648 OA
ENDBRANCH  40  41
ENDBRANCH  39  40
ENDBRANCH  38  39
END_RES GLU A 166
BEGIN_RES HIS A 163
REMARK  2 active torsions:
REMARK  status: ('A' for Active; 'I' for Inactive)
REMARK   17  A    between atoms: CA   and  CB  
REMARK   18  A    between atoms: CB   and  CG  
ROOT
ATOM     44  CA  HIS A 163     -19.055  16.637  64.100  1.00 27.27     0.182 C 
ENDROOT
BRANCH  44  45
ATOM     45  CB  HIS A 163     -18.129  16.377  62.914  1.00 26.00     0.093 C 
BRANCH  45  46
ATOM     46  CG  HIS A 163     -17.098  15.327  63.182  1.00 26.66     0.028 A 
ATOM     47  ND1 HIS A 163     -15.751  15.611  63.252  1.00 26.97    -0.354 N 
ATOM     48  CE1 HIS A 163     -15.081  14.498  63.492  1.00 30.44     0.180 A 
ATOM     49  HD1 HIS A 163     -15.336  16.535  63.136  1.00  0.00     0.166 HD
ATOM     50  NE2 HIS A 163     -15.945  13.502  63.576  1.00 30.00    -0.360 N 
ATOM     51  CD2 HIS A 163     -17.213  13.994  63.385  1.00 29.24     0.114 A 
ATOM     52  HE2 HIS A 163     -15.708  12.526  63.753  1.00  0.00     0.166 HD
ENDBRANCH  45  46
ENDBRANCH  44  45
END_RES HIS A 163
BEGIN_RES HIS A 172
REMARK  2 active torsions:
REMARK  status: ('A' for Active; 'I' for Inactive)
REMARK   19  A    between atoms: CA   and  CB  
REMARK   20  A    between atoms: CB   and  CG  
ROOT
ATOM     53  CA  HIS A 172     -18.444   9.111  64.049  1.00 29.85     0.182 C 
ENDROOT
BRANCH  53  54
ATOM     54  CB  HIS A 172     -18.188  10.085  62.898  1.00 26.76     0.093 C 
BRANCH  54  55
ATOM     55  CG  HIS A 172     -16.879   9.863  62.208  1.00 28.76     0.028 A 
ATOM     56  CD2 HIS A 172     -15.618  10.219  62.552  1.00 29.36     0.114 A 
ATOM     57  NE2 HIS A 172     -14.782   9.755  61.565  1.00 33.77    -0.360 N 
ATOM     58  CE1 HIS A 172     -15.503   9.132  60.649  1.00 32.44     0.180 A 
ATOM     59  HE2 HIS A 172     -13.770   9.873  61.543  1.00  0.00     0.166 HD
ATOM     60  ND1 HIS A 172     -16.772   9.180  61.015  1.00 29.32    -0.354 N 
ATOM     61  HD1 HIS A 172     -17.552   8.775  60.496  1.00  0.00     0.166 HD
ENDBRANCH  54  55
ENDBRANCH  53  54
END_RES HIS A 172
BEGIN_RES THR A  26
REMARK  2 active torsions:
REMARK  status: ('A' for Active; 'I' for Inactive)
REMARK   21  A    between atoms: CA   and  CB  
REMARK   22  A    between atoms: CB   and  OG1 
ROOT
ATOM     62  CA  THR A  26      -8.224  25.031  66.060  1.00 43.98     0.205 C 
ENDROOT
BRANCH  62  63
ATOM     63  CB  THR A  26      -7.184  25.490  65.034  1.00 45.90     0.146 C 
ATOM     64  CG2 THR A  26      -7.853  26.041  63.773  1.00 47.20     0.042 C 
BRANCH  63  65
ATOM     65  OG1 THR A  26      -6.343  26.494  65.612  1.00 50.51    -0.393 OA
ATOM     66  HG1 THR A  26      -5.645  26.718  65.006  1.00  0.00     0.210 HD
ENDBRANCH  63  65
ENDBRANCH  62  63
END_RES THR A  26
ENDMDL
