3010818
  -OEChem-02262018012D

102106  0     1  0  0  0  0  0999 V2000
    5.7680    0.2226    0.0000 O   0  0  0  0  0  0  0  0  0  0  0  0
    6.5687   -0.8793    0.0000 O   0  0  0  0  0  0  0  0  0  0  0  0
    7.5687   -4.3434    0.0000 O   0  0  0  0  0  0  0  0  0  0  0  0
    2.7825    2.2442    0.0000 O   0  0  0  0  0  0  0  0  0  0  0  0
    5.0478    3.6110    0.0000 O   0  0  0  0  0  0  0  0  0  0  0  0
   11.0687   -3.4774    0.0000 O   0  0  0  0  0  0  0  0  0  0  0  0
    5.0687   -1.7454    0.0000 N   0  0  0  0  0  0  0  0  0  0  0  0
    4.1208    0.7579    0.0000 N   0  0  0  0  0  0  0  0  0  0  0  0
    7.5687   -2.6114    0.0000 N   0  0  0  0  0  0  0  0  0  0  0  0
    9.5687   -2.6114    0.0000 N   0  0  0  0  0  0  0  0  0  0  0  0
    3.4005    4.1463    0.0000 N   0  0  0  0  0  0  0  0  0  0  0  0
   10.5687   -0.8793    0.0000 N   0  0  0  0  0  0  0  0  0  0  0  0
   12.5687   -0.8793    0.0000 N   0  0  0  0  0  0  0  0  0  0  0  0
    3.5298   -1.2454    0.0000 C   0  0  1  0  0  0  0  0  0  0  0  0
    3.5298   -2.2454    0.0000 C   0  0  1  0  0  0  0  0  0  0  0  0
    4.4809   -0.9363    0.0000 C   0  0  1  0  0  0  0  0  0  0  0  0
    2.5836   -0.9406    0.0000 C   0  0  0  0  0  0  0  0  0  0  0  0
    2.5836   -2.5501    0.0000 C   0  0  0  0  0  0  0  0  0  0  0  0
    4.4809   -2.5544    0.0000 C   0  0  0  0  0  0  0  0  0  0  0  0
    2.0000   -1.7454    0.0000 C   0  0  0  0  0  0  0  0  0  0  0  0
    4.7899    0.0147    0.0000 C   0  0  0  0  0  0  0  0  0  0  0  0
    6.0687   -1.7454    0.0000 C   0  0  0  0  0  0  0  0  0  0  0  0
    6.5687   -2.6114    0.0000 C   0  0  2  0  0  0  0  0  0  0  0  0
    6.0687   -3.4774    0.0000 C   0  0  0  0  0  0  0  0  0  0  0  0
    4.4298    1.7089    0.0000 C   0  0  1  0  0  0  0  0  0  0  0  0
    5.5687   -4.3434    0.0000 C   0  0  0  0  0  0  0  0  0  0  0  0
    6.9347   -3.9774    0.0000 C   0  0  0  0  0  0  0  0  0  0  0  0
    5.2026   -2.9774    0.0000 C   0  0  0  0  0  0  0  0  0  0  0  0
    9.5687   -4.3434    0.0000 C   0  0  0  0  0  0  0  0  0  0  0  0
    9.0687   -3.4774    0.0000 C   0  0  1  0  0  0  0  0  0  0  0  0
    8.0687   -3.4774    0.0000 C   0  0  0  0  0  0  0  0  0  0  0  0
    5.4079    1.9168    0.0000 C   0  0  0  0  0  0  0  0  0  0  0  0
    9.0687   -5.2094    0.0000 C   0  0  0  0  0  0  0  0  0  0  0  0
   10.5687   -4.3434    0.0000 C   0  0  0  0  0  0  0  0  0  0  0  0
    3.7607    2.4521    0.0000 C   0  0  0  0  0  0  0  0  0  0  0  0
    9.5687   -6.0755    0.0000 C   0  0  0  0  0  0  0  0  0  0  0  0
   11.0687   -5.2094    0.0000 C   0  0  0  0  0  0  0  0  0  0  0  0
   10.5687   -6.0755    0.0000 C   0  0  0  0  0  0  0  0  0  0  0  0
    3.7096    5.0973    0.0000 C   0  0  0  0  0  0  0  0  0  0  0  0
    5.7170    2.8679    0.0000 C   0  0  0  0  0  0  0  0  0  0  0  0
    4.4527    5.7665    0.0000 C   0  0  0  0  0  0  0  0  0  0  0  0
    3.5016    6.0755    0.0000 C   0  0  0  0  0  0  0  0  0  0  0  0
    4.0697    3.4031    0.0000 C   0  0  0  0  0  0  0  0  0  0  0  0
    6.6951    3.0758    0.0000 C   0  0  0  0  0  0  0  0  0  0  0  0
   10.5687   -2.6114    0.0000 C   0  0  0  0  0  0  0  0  0  0  0  0
   11.0687   -1.7454    0.0000 C   0  0  0  0  0  0  0  0  0  0  0  0
   12.0687   -1.7454    0.0000 C   0  0  0  0  0  0  0  0  0  0  0  0
   11.0687   -0.0133    0.0000 C   0  0  0  0  0  0  0  0  0  0  0  0
   12.0687   -0.0133    0.0000 C   0  0  0  0  0  0  0  0  0  0  0  0
    3.5287   -0.3954    0.0000 H   0  0  0  0  0  0  0  0  0  0  0  0
    3.5287   -3.0954    0.0000 H   0  0  0  0  0  0  0  0  0  0  0  0
    5.0932   -0.8393    0.0000 H   0  0  0  0  0  0  0  0  0  0  0  0
    2.8346   -0.3737    0.0000 H   0  0  0  0  0  0  0  0  0  0  0  0
    2.0462   -0.6314    0.0000 H   0  0  0  0  0  0  0  0  0  0  0  0
    2.0462   -2.8593    0.0000 H   0  0  0  0  0  0  0  0  0  0  0  0
    2.8346   -3.1170    0.0000 H   0  0  0  0  0  0  0  0  0  0  0  0
    4.2287   -3.1208    0.0000 H   0  0  0  0  0  0  0  0  0  0  0  0
    5.0178   -2.8644    0.0000 H   0  0  0  0  0  0  0  0  0  0  0  0
    1.5391   -1.3306    0.0000 H   0  0  0  0  0  0  0  0  0  0  0  0
    1.5391   -2.1601    0.0000 H   0  0  0  0  0  0  0  0  0  0  0  0
    6.8787   -2.0744    0.0000 H   0  0  0  0  0  0  0  0  0  0  0  0
    3.5143    0.6290    0.0000 H   0  0  0  0  0  0  0  0  0  0  0  0
    7.8787   -2.0744    0.0000 H   0  0  0  0  0  0  0  0  0  0  0  0
    3.8233    1.5800    0.0000 H   0  0  0  0  0  0  0  0  0  0  0  0
    5.0317   -4.0334    0.0000 H   0  0  0  0  0  0  0  0  0  0  0  0
    5.2587   -4.8804    0.0000 H   0  0  0  0  0  0  0  0  0  0  0  0
    6.1056   -4.6534    0.0000 H   0  0  0  0  0  0  0  0  0  0  0  0
    6.6247   -4.5143    0.0000 H   0  0  0  0  0  0  0  0  0  0  0  0
    7.4716   -4.2874    0.0000 H   0  0  0  0  0  0  0  0  0  0  0  0
    7.2447   -3.4405    0.0000 H   0  0  0  0  0  0  0  0  0  0  0  0
    5.5126   -2.4405    0.0000 H   0  0  0  0  0  0  0  0  0  0  0  0
    4.6657   -2.6674    0.0000 H   0  0  0  0  0  0  0  0  0  0  0  0
    4.8926   -3.5143    0.0000 H   0  0  0  0  0  0  0  0  0  0  0  0
    8.9487   -4.3434    0.0000 H   0  0  0  0  0  0  0  0  0  0  0  0
    9.6887   -3.4774    0.0000 H   0  0  0  0  0  0  0  0  0  0  0  0
    5.4296    1.2972    0.0000 H   0  0  0  0  0  0  0  0  0  0  0  0
    6.0219    1.8306    0.0000 H   0  0  0  0  0  0  0  0  0  0  0  0
    8.5937   -4.8109    0.0000 H   0  0  0  0  0  0  0  0  0  0  0  0
    8.5937   -5.6080    0.0000 H   0  0  0  0  0  0  0  0  0  0  0  0
   11.1513   -4.1314    0.0000 H   0  0  0  0  0  0  0  0  0  0  0  0
   10.4610   -3.7328    0.0000 H   0  0  0  0  0  0  0  0  0  0  0  0
    8.9861   -6.2875    0.0000 H   0  0  0  0  0  0  0  0  0  0  0  0
    9.6763   -6.6861    0.0000 H   0  0  0  0  0  0  0  0  0  0  0  0
   11.5436   -5.6080    0.0000 H   0  0  0  0  0  0  0  0  0  0  0  0
   11.5436   -4.8109    0.0000 H   0  0  0  0  0  0  0  0  0  0  0  0
   10.4610   -6.6861    0.0000 H   0  0  0  0  0  0  0  0  0  0  0  0
   11.1513   -6.2875    0.0000 H   0  0  0  0  0  0  0  0  0  0  0  0
    3.0904    5.1298    0.0000 H   0  0  0  0  0  0  0  0  0  0  0  0
    4.9413    5.3848    0.0000 H   0  0  0  0  0  0  0  0  0  0  0  0
    4.7438    6.3139    0.0000 H   0  0  0  0  0  0  0  0  0  0  0  0
    3.5879    6.6894    0.0000 H   0  0  0  0  0  0  0  0  0  0  0  0
    2.8820    6.0538    0.0000 H   0  0  0  0  0  0  0  0  0  0  0  0
    5.6953    3.4875    0.0000 H   0  0  0  0  0  0  0  0  0  0  0  0
    5.1030    2.9542    0.0000 H   0  0  0  0  0  0  0  0  0  0  0  0
    9.2587   -2.0744    0.0000 H   0  0  0  0  0  0  0  0  0  0  0  0
    2.7941    4.0174    0.0000 H   0  0  0  0  0  0  0  0  0  0  0  0
    6.8240    2.4694    0.0000 H   0  0  0  0  0  0  0  0  0  0  0  0
    7.3016    3.2047    0.0000 H   0  0  0  0  0  0  0  0  0  0  0  0
    6.5662    3.6823    0.0000 H   0  0  0  0  0  0  0  0  0  0  0  0
   12.3787   -2.2823    0.0000 H   0  0  0  0  0  0  0  0  0  0  0  0
   10.7587    0.5236    0.0000 H   0  0  0  0  0  0  0  0  0  0  0  0
   12.3787    0.5236    0.0000 H   0  0  0  0  0  0  0  0  0  0  0  0
  1 21  2  0  0  0  0
  2 22  2  0  0  0  0
  3 31  2  0  0  0  0
  4 35  2  0  0  0  0
  5 43  2  0  0  0  0
  6 45  2  0  0  0  0
  7 16  1  0  0  0  0
  7 19  1  0  0  0  0
  7 22  1  0  0  0  0
  8 21  1  0  0  0  0
 25  8  1  6  0  0  0
  8 62  1  0  0  0  0
 23  9  1  1  0  0  0
  9 31  1  0  0  0  0
  9 63  1  0  0  0  0
 30 10  1  1  0  0  0
 10 45  1  0  0  0  0
 10 95  1  0  0  0  0
 11 39  1  0  0  0  0
 11 43  1  0  0  0  0
 11 96  1  0  0  0  0
 12 46  2  0  0  0  0
 12 48  1  0  0  0  0
 13 47  2  0  0  0  0
 13 49  1  0  0  0  0
 14 15  1  0  0  0  0
 14 16  1  0  0  0  0
 14 17  1  0  0  0  0
 14 50  1  1  0  0  0
 15 18  1  0  0  0  0
 15 19  1  0  0  0  0
 15 51  1  1  0  0  0
 16 21  1  1  0  0  0
 16 52  1  0  0  0  0
 17 20  1  0  0  0  0
 17 53  1  0  0  0  0
 17 54  1  0  0  0  0
 18 20  1  0  0  0  0
 18 55  1  0  0  0  0
 18 56  1  0  0  0  0
 19 57  1  0  0  0  0
 19 58  1  0  0  0  0
 20 59  1  0  0  0  0
 20 60  1  0  0  0  0
 22 23  1  0  0  0  0
 23 24  1  0  0  0  0
 23 61  1  0  0  0  0
 24 26  1  0  0  0  0
 24 27  1  0  0  0  0
 24 28  1  0  0  0  0
 25 32  1  0  0  0  0
 25 35  1  0  0  0  0
 25 64  1  0  0  0  0
 26 65  1  0  0  0  0
 26 66  1  0  0  0  0
 26 67  1  0  0  0  0
 27 68  1  0  0  0  0
 27 69  1  0  0  0  0
 27 70  1  0  0  0  0
 28 71  1  0  0  0  0
 28 72  1  0  0  0  0
 28 73  1  0  0  0  0
 29 30  1  0  0  0  0
 29 33  1  0  0  0  0
 29 34  1  0  0  0  0
 29 74  1  0  0  0  0
 30 31  1  0  0  0  0
 30 75  1  0  0  0  0
 32 40  1  0  0  0  0
 32 76  1  0  0  0  0
 32 77  1  0  0  0  0
 33 36  1  0  0  0  0
 33 78  1  0  0  0  0
 33 79  1  0  0  0  0
 34 37  1  0  0  0  0
 34 80  1  0  0  0  0
 34 81  1  0  0  0  0
 35 43  1  0  0  0  0
 36 38  1  0  0  0  0
 36 82  1  0  0  0  0
 36 83  1  0  0  0  0
 37 38  1  0  0  0  0
 37 84  1  0  0  0  0
 37 85  1  0  0  0  0
 38 86  1  0  0  0  0
 38 87  1  0  0  0  0
 39 41  1  0  0  0  0
 39 42  1  0  0  0  0
 39 88  1  0  0  0  0
 40 44  1  0  0  0  0
 40 93  1  0  0  0  0
 40 94  1  0  0  0  0
 41 42  1  0  0  0  0
 41 89  1  0  0  0  0
 41 90  1  0  0  0  0
 42 91  1  0  0  0  0
 42 92  1  0  0  0  0
 44 97  1  0  0  0  0
 44 98  1  0  0  0  0
 44 99  1  0  0  0  0
 45 46  1  0  0  0  0
 46 47  1  0  0  0  0
 47100  1  0  0  0  0
 48 49  2  0  0  0  0
 48101  1  0  0  0  0
 49102  1  0  0  0  0
M  END
> <PUBCHEM_COMPOUND_CID>
3010818

> <PUBCHEM_COMPOUND_CANONICALIZED>
1

> <PUBCHEM_CACTVS_COMPLEXITY>
1240

> <PUBCHEM_CACTVS_HBOND_ACCEPTOR>
8

> <PUBCHEM_CACTVS_HBOND_DONOR>
4

> <PUBCHEM_CACTVS_ROTATABLE_BOND>
14

> <PUBCHEM_CACTVS_SUBSKEYS>
AAADcfB/uAAAAAAAAAAAAAAAGAAAAeIAAAA8QAAAAAAWAAABgAAAHgAQAAAADyzBlgQugBPIEACoAZV3VACAgCQXEiAIUIG4dEAAQFpAwCAUAIgAFgDAAMEYiYCPgAAAAAAAAAAAAAAAAAAAAAAACAAAAA==

> <PUBCHEM_IUPAC_OPENEYE_NAME>
(3S,3aS,6aR)-2-[(2S)-2-[[(2S)-2-cyclohexyl-2-(pyrazine-2-carbonylamino)acetyl]amino]-3,3-dimethyl-butanoyl]-N-[(1S)-1-[2-(cyclopropylamino)-2-oxo-acetyl]butyl]-3,3a,4,5,6,6a-hexahydro-1H-cyclopenta[c]pyrrole-3-carboxamide

> <PUBCHEM_IUPAC_CAS_NAME>
(3S,3aS,6aR)-2-[(2S)-2-[[(2S)-2-cyclohexyl-1-oxo-2-[[oxo(2-pyrazinyl)methyl]amino]ethyl]amino]-3,3-dimethyl-1-oxobutyl]-N-[(3S)-1-(cyclopropylamino)-1,2-dioxohexan-3-yl]-3,3a,4,5,6,6a-hexahydro-1H-cyclopenta[c]pyrrole-3-carboxamide

> <PUBCHEM_IUPAC_NAME_MARKUP>
(3<I>S</I>,3<I>a</I><I>S</I>,6<I>a</I><I>R</I>)-2-[(2<I>S</I>)-2-[[(2<I>S</I>)-2-cyclohexyl-2-(pyrazine-2-carbonylamino)acetyl]amino]-3,3-dimethylbutanoyl]-<I>N</I>-[(3<I>S</I>)-1-(cyclopropylamino)-1,2-dioxohexan-3-yl]-3,3<I>a</I>,4,5,6,6<I>a</I>-hexahydro-1<I>H</I>-cyclopenta[c]pyrrole-3-carboxamide

> <PUBCHEM_IUPAC_NAME>
(3S,3aS,6aR)-2-[(2S)-2-[[(2S)-2-cyclohexyl-2-(pyrazine-2-carbonylamino)acetyl]amino]-3,3-dimethylbutanoyl]-N-[(3S)-1-(cyclopropylamino)-1,2-dioxohexan-3-yl]-3,3a,4,5,6,6a-hexahydro-1H-cyclopenta[c]pyrrole-3-carboxamide

> <PUBCHEM_IUPAC_SYSTEMATIC_NAME>
(3S,3aS,6aR)-2-[(2S)-2-[[(2S)-2-cyclohexyl-2-(pyrazin-2-ylcarbonylamino)ethanoyl]amino]-3,3-dimethyl-butanoyl]-N-[(3S)-1-(cyclopropylamino)-1,2-bis(oxidanylidene)hexan-3-yl]-3,3a,4,5,6,6a-hexahydro-1H-cyclopenta[c]pyrrole-3-carboxamide

> <PUBCHEM_IUPAC_TRADITIONAL_NAME>
(3S,3aS,6aR)-2-[(2S)-2-[[(2S)-2-cyclohexyl-2-(pyrazinoylamino)acetyl]amino]-3,3-dimethyl-butanoyl]-N-[(1S)-1-[2-(cyclopropylamino)-2-keto-acetyl]butyl]-3,3a,4,5,6,6a-hexahydro-1H-cyclopenta[c]pyrrole-3-carboxamide

> <PUBCHEM_IUPAC_INCHI>
InChI=1S/C36H53N7O6/c1-5-10-25(29(44)34(48)39-23-15-16-23)40-33(47)28-24-14-9-13-22(24)20-43(28)35(49)30(36(2,3)4)42-32(46)27(21-11-7-6-8-12-21)41-31(45)26-19-37-17-18-38-26/h17-19,21-25,27-28,30H,5-16,20H2,1-4H3,(H,39,48)(H,40,47)(H,41,45)(H,42,46)/t22-,24-,25-,27-,28-,30+/m0/s1

> <PUBCHEM_IUPAC_INCHIKEY>
BBAWEDCPNXPBQM-GDEBMMAJSA-N

> <PUBCHEM_XLOGP3_AA>
4.2

> <PUBCHEM_EXACT_MASS>
679.405732

> <PUBCHEM_MOLECULAR_FORMULA>
C36H53N7O6

> <PUBCHEM_MOLECULAR_WEIGHT>
679.8

> <PUBCHEM_OPENEYE_CAN_SMILES>
CCCC(C(=O)C(=O)NC1CC1)NC(=O)C2C3CCCC3CN2C(=O)C(C(C)(C)C)NC(=O)C(C4CCCCC4)NC(=O)C5=NC=CN=C5

> <PUBCHEM_OPENEYE_ISO_SMILES>
CCC[C@@H](C(=O)C(=O)NC1CC1)NC(=O)[C@@H]2[C@H]3CCC[C@H]3CN2C(=O)[C@H](C(C)(C)C)NC(=O)[C@H](C4CCCCC4)NC(=O)C5=NC=CN=C5

> <PUBCHEM_CACTVS_TPSA>
180

> <PUBCHEM_MONOISOTOPIC_WEIGHT>
679.405732

> <PUBCHEM_TOTAL_CHARGE>
0

> <PUBCHEM_HEAVY_ATOM_COUNT>
49

> <PUBCHEM_ATOM_DEF_STEREO_COUNT>
6

> <PUBCHEM_ATOM_UDEF_STEREO_COUNT>
0

> <PUBCHEM_BOND_DEF_STEREO_COUNT>
0

> <PUBCHEM_BOND_UDEF_STEREO_COUNT>
0

> <PUBCHEM_ISOTOPIC_ATOM_COUNT>
0

> <PUBCHEM_COMPONENT_COUNT>
1

> <PUBCHEM_CACTVS_TAUTO_COUNT>
-1

> <PUBCHEM_COORDINATE_TYPE>
1
5
255

> <PUBCHEM_BONDANNOTATIONS>
30  10  5
12  46  8
12  48  8
13  47  8
13  49  8
14  50  5
15  51  5
16  21  5
46  47  8
48  49  8
25  8  6
23  9  5

$$$$
