REMARK  9 active torsions:
REMARK  status: ('A' for Active; 'I' for Inactive)
REMARK    1  A    between atoms: O1_2  and  C2_3 
REMARK    2  A    between atoms: N1_10  and  C9_11 
REMARK    3  A    between atoms: C11_15  and  O3_16 
REMARK    4  A    between atoms: O3_16  and  C12_17 
REMARK    5  A    between atoms: C12_17  and  N3_19 
REMARK    6  A    between atoms: N3_19  and  C13_20 
REMARK    7  A    between atoms: C13_20  and  C14_21 
REMARK    8  A    between atoms: C20_28  and  C21_29 
REMARK    9  A    between atoms: C21_29  and  C22_30 
ROOT
HETATM    1  C1  UNL     1      -2.888   1.468   7.677  1.00  0.00     0.210 C 
HETATM    2  O1  UNL     1      -1.839   1.172   6.803  1.00  0.00    -0.356 OA
ENDROOT
BRANCH   2   3
HETATM    3  C2  UNL     1      -1.913   1.433   5.443  1.00  0.00     0.069 A 
HETATM    4  C3  UNL     1      -0.867   1.129   4.617  1.00  0.00     0.039 A 
HETATM    5  C4  UNL     1      -0.935   1.386   3.263  1.00  0.00     0.034 A 
HETATM    6  C5  UNL     1      -2.052   1.960   2.673  1.00  0.00     0.052 A 
HETATM    7  C6  UNL     1      -3.092   2.251   3.555  1.00  0.00    -0.005 A 
HETATM    8  N1  UNL     1      -2.342   2.281   1.412  1.00  0.00    -0.286 N 
HETATM    9  C7  UNL     1      -4.079   2.783   2.777  1.00  0.00     0.031 A 
HETATM   10  C28 UNL     1      -3.044   2.001   4.917  1.00  0.00     0.050 A 
HETATM   11  C8  UNL     1      -3.623   2.797   1.499  1.00  0.00     0.102 A 
BRANCH   8  12
HETATM   12  C9  UNL     1      -1.645   2.145   0.206  1.00  0.00     0.261 C 
HETATM   13  O2  UNL     1      -2.448   2.541  -0.838  1.00  0.00    -0.151 OA
HETATM   14  N2  UNL     1      -0.447   1.758  -0.321  1.00  0.00    -0.337 N 
HETATM   15  C10 UNL     1       0.879   1.298  -0.021  1.00  0.00     0.159 C 
HETATM   16  C20 UNL     1      -0.350   1.685  -1.858  1.00  0.00     0.094 C 
HETATM   17  C11 UNL     1       0.842  -0.018  -0.775  1.00  0.00     0.153 C 
HETATM   18  C19 UNL     1       0.543   0.537  -2.155  1.00  0.00     0.060 C 
BRANCH  17  19
HETATM   19  O3  UNL     1       1.924  -0.824  -0.648  1.00  0.00    -0.297 OA
BRANCH  19  20
HETATM   20  C12 UNL     1       1.971  -2.110  -0.138  1.00  0.00     0.361 C 
HETATM   21  O4  UNL     1       0.862  -2.552   0.242  1.00  0.00    -0.238 OA
BRANCH  20  22
HETATM   22  N3  UNL     1       3.111  -2.901  -0.024  1.00  0.00    -0.331 N 
HETATM   23  H11 UNL     1       4.014  -2.449  -0.372  1.00  0.00     0.165 HD
BRANCH  22  24
HETATM   24  C13 UNL     1       3.220  -4.210   0.490  1.00  0.00     0.184 C 
BRANCH  24  25
HETATM   25  C14 UNL     1       2.744  -5.309  -0.367  1.00  0.00     0.051 A 
HETATM   26  C15 UNL     1       3.152  -6.579   0.027  1.00  0.00     0.029 A 
HETATM   27  C16 UNL     1       2.795  -7.698  -0.658  1.00  0.00     0.003 A 
HETATM   28  C17 UNL     1       2.004  -7.539  -1.774  1.00  0.00     0.019 A 
HETATM   29  C18 UNL     1       1.614  -6.271  -2.142  1.00  0.00     0.117 A 
HETATM   30  N4  UNL     1       1.987  -5.194  -1.440  1.00  0.00    -0.264 NA
ENDBRANCH  24  25
ENDBRANCH  22  24
ENDBRANCH  20  22
ENDBRANCH  19  20
ENDBRANCH  17  19
BRANCH  16  31
HETATM   31  C21 UNL     1       0.112   2.965  -2.417  1.00  0.00     0.064 C 
BRANCH  31  32
HETATM   32  C22 UNL     1       0.208   2.940  -3.881  1.00  0.00    -0.056 A 
HETATM   33  C23 UNL     1       1.376   2.668  -4.522  1.00  0.00     0.007 A 
HETATM   34  C24 UNL     1       1.437   2.629  -5.906  1.00  0.00     0.001 A 
HETATM   35  C25 UNL     1       0.289   2.872  -6.633  1.00  0.00     0.000 A 
HETATM   36  C26 UNL     1      -0.889   3.146  -5.996  1.00  0.00     0.001 A 
HETATM   37  C27 UNL     1      -0.938   3.183  -4.606  1.00  0.00     0.007 A 
ENDBRANCH  31  32
ENDBRANCH  16  31
ENDBRANCH   8  12
ENDBRANCH   2   3
TORSDOF 7
