REMARK  18 active torsions:
REMARK  status: ('A' for Active; 'I' for Inactive)
REMARK    1  A    between atoms: C5_6  and  O1_7 
REMARK    2  A    between atoms: O1_7  and  C6_8 
REMARK    3  A    between atoms: C6_8  and  C7_9 
REMARK    4  A    between atoms: C7_9  and  N2_10 
REMARK    5  A    between atoms: N2_10  and  C8_11 
REMARK    6  A    between atoms: N2_10  and  C31_42 
REMARK    7  A    between atoms: C8_11  and  C9_12 
REMARK    8  A    between atoms: C13_16  and  C14_17 
REMARK    9  A    between atoms: C15_20  and  C16_21 
REMARK   10  A    between atoms: C21_27  and  C22_28 
REMARK   11  A    between atoms: C22_28  and  O3_29 
REMARK   12  A    between atoms: C22_28  and  O4_30 
REMARK   13  A    between atoms: C22_28  and  C23_31 
REMARK   14  A    between atoms: C23_31  and  O5_32 
REMARK   15  A    between atoms: O5_32  and  C24_33 
REMARK   16  A    between atoms: C29_39  and  O6_40 
REMARK   17  A    between atoms: C31_42  and  O8_44 
REMARK   18  A    between atoms: O8_44  and  C32_45 
ROOT
HETATM    1  N1  UNL     1      -3.903   4.333   5.282  1.00  0.00    -0.191 NA
HETATM    2  C1  UNL     1      -4.003   3.903   4.210  1.00  0.00     0.099 C 
HETATM    3  C2  UNL     1      -4.157   3.360   2.870  1.00  0.00     0.044 A 
HETATM    4  C3  UNL     1      -3.397   3.832   1.805  1.00  0.00     0.025 A 
HETATM    5  C4  UNL     1      -3.603   3.274   0.580  1.00  0.00     0.038 A 
HETATM    6  C5  UNL     1      -4.527   2.277   0.391  1.00  0.00     0.068 A 
HETATM    7  C36 UNL     1      -5.301   1.788   1.448  1.00  0.00     0.038 A 
HETATM    8  C37 UNL     1      -5.089   2.363   2.709  1.00  0.00     0.025 A 
ENDROOT
BRANCH   6   9
HETATM    9  O1  UNL     1      -4.752   1.701  -0.831  1.00  0.00    -0.350 OA
BRANCH   9  10
HETATM   10  C6  UNL     1      -4.094   2.037  -2.033  1.00  0.00     0.195 C 
BRANCH  10  11
HETATM   11  C7  UNL     1      -4.609   1.202  -3.142  1.00  0.00     0.155 C 
BRANCH  11  12
HETATM   12  N2  UNL     1      -4.458  -0.214  -3.017  1.00  0.00    -0.322 N 
BRANCH  12  13
HETATM   13  C8  UNL     1      -3.380  -0.929  -3.612  1.00  0.00     0.166 C 
BRANCH  13  14
HETATM   14  C9  UNL     1      -2.332  -1.440  -2.705  1.00  0.00    -0.039 A 
HETATM   15  C10 UNL     1      -2.325  -2.826  -2.457  1.00  0.00     0.009 A 
HETATM   16  C11 UNL     1      -1.374  -3.361  -1.629  1.00  0.00     0.002 A 
HETATM   17  C12 UNL     1      -0.402  -2.560  -1.018  1.00  0.00     0.014 A 
HETATM   18  C13 UNL     1      -0.375  -1.205  -1.234  1.00  0.00    -0.004 A 
HETATM   19  C30 UNL     1      -1.369  -0.710  -2.090  1.00  0.00     0.022 A 
BRANCH  18  20
HETATM   20  C14 UNL     1       0.576  -0.278  -0.645  1.00  0.00     0.096 A 
HETATM   21  N3  UNL     1       0.560   1.050  -0.831  1.00  0.00    -0.274 N 
HETATM   22  N4  UNL     1       1.539   1.567  -0.153  1.00  0.00    -0.171 NA
HETATM   23  H12 UNL     1      -0.105   1.636  -1.414  1.00  0.00     0.189 HD
HETATM   24  C15 UNL     1       2.261   0.582   0.523  1.00  0.00     0.125 A 
HETATM   25  C29 UNL     1       1.640  -0.579   0.206  1.00  0.00     0.126 A 
BRANCH  24  26
HETATM   26  C16 UNL     1       3.316   1.006   1.417  1.00  0.00     0.031 A 
HETATM   27  C17 UNL     1       3.077   2.121   2.163  1.00  0.00     0.018 A 
HETATM   28  C18 UNL     1       4.050   2.653   3.089  1.00  0.00     0.026 A 
HETATM   29  C19 UNL     1       5.227   2.047   3.220  1.00  0.00     0.142 A 
HETATM   30  O2  UNL     1       5.558   0.927   2.501  1.00  0.00    -0.322 OA
HETATM   31  C20 UNL     1       4.594   0.404   1.588  1.00  0.00     0.089 A 
HETATM   32  C21 UNL     1       4.949  -0.667   0.885  1.00  0.00     0.081 C 
BRANCH  32  33
HETATM   33  C22 UNL     1       6.299  -1.266   1.102  1.00  0.00     0.204 C 
BRANCH  33  34
HETATM   34  O3  UNL     1       6.871  -0.971   2.310  1.00  0.00    -0.360 OA
HETATM   35  H17 UNL     1       6.970  -1.785   2.844  1.00  0.00     0.213 HD
ENDBRANCH  33  34
BRANCH  33  36
HETATM   36  O4  UNL     1       6.112  -2.672   0.995  1.00  0.00    -0.360 OA
HETATM   37  H18 UNL     1       6.044  -2.992   1.930  1.00  0.00     0.213 HD
ENDBRANCH  33  36
BRANCH  33  38
HETATM   38  C23 UNL     1       7.241  -0.922  -0.026  1.00  0.00     0.248 C 
BRANCH  38  39
HETATM   39  O5  UNL     1       7.654   0.317  -0.206  1.00  0.00    -0.345 OA
BRANCH  39  40
HETATM   40  C24 UNL     1       8.282   1.402   0.184  1.00  0.00     0.071 A 
HETATM   41  C25 UNL     1       8.962   1.622   1.366  1.00  0.00     0.056 A 
HETATM   42  C26 UNL     1       9.557   2.837   1.590  1.00  0.00     0.119 A 
HETATM   43  N5  UNL     1       9.518   3.848   0.715  1.00  0.00    -0.273 NA
HETATM   44  C27 UNL     1       8.868   3.690  -0.457  1.00  0.00     0.119 A 
HETATM   45  C28 UNL     1       8.264   2.494  -0.716  1.00  0.00     0.056 A 
ENDBRANCH  39  40
ENDBRANCH  38  39
ENDBRANCH  33  38
ENDBRANCH  32  33
ENDBRANCH  24  26
BRANCH  25  46
HETATM   46  O6  UNL     1       1.907  -1.838   0.589  1.00  0.00    -0.356 OA
HETATM   47  H25 UNL     1       2.515  -2.309   1.174  1.00  0.00     0.218 HD
ENDBRANCH  25  46
ENDBRANCH  18  20
ENDBRANCH  13  14
ENDBRANCH  12  13
BRANCH  12  48
HETATM   48  C31 UNL     1      -5.534  -0.900  -2.334  1.00  0.00     0.363 C 
HETATM   49  O7  UNL     1      -6.529  -0.256  -1.918  1.00  0.00    -0.238 OA
BRANCH  48  50
HETATM   50  O8  UNL     1      -5.541  -2.255  -2.098  1.00  0.00    -0.296 OA
BRANCH  50  51
HETATM   51  C32 UNL     1      -6.598  -2.917  -1.423  1.00  0.00     0.159 C 
HETATM   52  C33 UNL     1      -7.019  -4.102  -2.217  1.00  0.00     0.061 C 
HETATM   53  C34 UNL     1      -7.281  -5.142  -1.138  1.00  0.00     0.170 C 
HETATM   54  O9  UNL     1      -6.961  -4.533   0.087  1.00  0.00    -0.389 OA
HETATM   55  C35 UNL     1      -5.991  -3.570  -0.185  1.00  0.00     0.200 C 
ENDBRANCH  50  51
ENDBRANCH  48  50
ENDBRANCH  12  48
ENDBRANCH  11  12
ENDBRANCH  10  11
ENDBRANCH   9  10
ENDBRANCH   6   9
TORSDOF 17
