REMARK  20 active torsions:
REMARK  status: ('A' for Active; 'I' for Inactive)
REMARK    1  A    between atoms: C2_2  and  O1_3 
REMARK    2  A    between atoms: O1_3  and  C3_4 
REMARK    3  A    between atoms: C3_4  and  C4_6 
REMARK    4  A    between atoms: C5_7  and  C6_8 
REMARK    5  A    between atoms: C6_8  and  C7_9 
REMARK    6  A    between atoms: C6_8  and  N2_14 
REMARK    7  A    between atoms: C7_9  and  C8_10 
REMARK    8  A    between atoms: C8_10  and  C9_11 
REMARK    9  A    between atoms: C9_11  and  N1_12 
REMARK   10  A    between atoms: N2_14  and  C10_15 
REMARK   11  A    between atoms: C10_15  and  C11_17 
REMARK   12  A    between atoms: C11_17  and  C12_18 
REMARK   13  A    between atoms: C11_17  and  O5_26 
REMARK   14  A    between atoms: C12_18  and  C13_19 
REMARK   15  A    between atoms: O5_26  and  C19_27 
REMARK   16  A    between atoms: C19_27  and  C20_29 
REMARK   17  A    between atoms: C20_29  and  N3_30 
REMARK   18  A    between atoms: C20_29  and  C26_39 
REMARK   19  A    between atoms: N3_30  and  C21_31 
REMARK   20  A    between atoms: C21_31  and  C22_33 
ROOT
HETATM    1  C1  UNL     1       9.891   2.076  -0.291  1.00  0.00     0.034 C 
HETATM    2  C2  UNL     1       9.135   0.781  -0.082  1.00  0.00     0.174 C 
ENDROOT
BRANCH   2   3
HETATM    3  O1  UNL     1       7.769   1.079   0.227  1.00  0.00    -0.319 OA
BRANCH   3   4
HETATM    4  C3  UNL     1       6.834   0.113   0.478  1.00  0.00     0.282 C 
HETATM    5  O2  UNL     1       7.200  -1.102   0.414  1.00  0.00    -0.260 OA
BRANCH   4   6
HETATM    6  C4  UNL     1       5.440   0.353   0.817  1.00  0.00     0.080 C 
HETATM    7  C5  UNL     1       4.567  -0.615   1.023  1.00  0.00     0.004 C 
BRANCH   7   8
HETATM    8  C6  UNL     1       3.204  -0.351   1.361  1.00  0.00     0.108 C 
BRANCH   8   9
HETATM    9  C7  UNL     1       2.727  -0.838   2.688  1.00  0.00     0.038 C 
BRANCH   9  10
HETATM   10  C8  UNL     1       2.781  -2.274   2.999  1.00  0.00     0.105 C 
BRANCH  10  11
HETATM   11  C9  UNL     1       4.088  -2.926   3.113  1.00  0.00     0.215 C 
HETATM   12  O3  UNL     1       5.105  -2.322   3.516  1.00  0.00    -0.274 OA
BRANCH  11  13
HETATM   13  N1  UNL     1       4.240  -4.296   2.767  1.00  0.00    -0.370 N 
HETATM   14  H13 UNL     1       3.450  -4.933   2.990  1.00  0.00     0.159 HD
HETATM   15  H14 UNL     1       5.117  -4.611   2.311  1.00  0.00     0.159 HD
ENDBRANCH  11  13
ENDBRANCH  10  11
ENDBRANCH   9  10
ENDBRANCH   8   9
BRANCH   8  16
HETATM   16  N2  UNL     1       2.209  -0.709   0.357  1.00  0.00    -0.351 N 
HETATM   17  H15 UNL     1       2.271  -1.604  -0.155  1.00  0.00     0.163 HD
BRANCH  16  18
HETATM   18  C10 UNL     1       1.125   0.156   0.047  1.00  0.00     0.248 C 
HETATM   19  O4  UNL     1       1.032   1.265   0.684  1.00  0.00    -0.271 OA
BRANCH  18  20
HETATM   20  C11 UNL     1       0.079  -0.116  -0.963  1.00  0.00     0.227 C 
BRANCH  20  21
HETATM   21  C12 UNL     1       0.713   0.021  -2.316  1.00  0.00     0.080 C 
BRANCH  21  22
HETATM   22  C13 UNL     1      -0.164  -0.200  -3.456  1.00  0.00    -0.055 A 
HETATM   23  C14 UNL     1      -0.842   0.933  -3.940  1.00  0.00     0.010 A 
HETATM   24  C15 UNL     1      -1.700   0.852  -5.014  1.00  0.00     0.043 A 
HETATM   25  C16 UNL     1      -1.912  -0.354  -5.638  1.00  0.00     0.116 A 
HETATM   26  F1  UNL     1      -2.755  -0.477  -6.707  1.00  0.00    -0.206 F 
HETATM   27  C17 UNL     1      -1.260  -1.488  -5.186  1.00  0.00     0.043 A 
HETATM   28  C18 UNL     1      -0.407  -1.359  -4.105  1.00  0.00     0.010 A 
ENDBRANCH  21  22
ENDBRANCH  20  21
BRANCH  20  29
HETATM   29  O5  UNL     1      -0.964   0.865  -0.886  1.00  0.00    -0.304 OA
BRANCH  29  30
HETATM   30  C19 UNL     1      -2.253   0.467  -0.612  1.00  0.00     0.283 C 
HETATM   31  O6  UNL     1      -2.426  -0.790  -0.445  1.00  0.00    -0.263 OA
BRANCH  30  32
HETATM   32  C20 UNL     1      -3.450   1.294  -0.489  1.00  0.00     0.188 C 
BRANCH  32  33
HETATM   33  N3  UNL     1      -4.630   0.530  -0.235  1.00  0.00    -0.341 N 
HETATM   34  H24 UNL     1      -5.097   0.041  -1.096  1.00  0.00     0.163 HD
BRANCH  33  35
HETATM   35  C21 UNL     1      -5.324   0.280   0.961  1.00  0.00     0.273 C 
HETATM   36  O7  UNL     1      -4.932   0.746   2.048  1.00  0.00    -0.266 OA
BRANCH  35  37
HETATM   37  C22 UNL     1      -6.541  -0.539   0.993  1.00  0.00     0.154 A 
HETATM   38  C23 UNL     1      -7.279  -0.818   2.112  1.00  0.00     0.074 A 
HETATM   39  C24 UNL     1      -8.338  -1.621   1.708  1.00  0.00     0.077 A 
HETATM   40  C25 UNL     1      -9.391  -2.157   2.622  1.00  0.00     0.079 C 
HETATM   41  O8  UNL     1      -8.199  -1.783   0.426  1.00  0.00    -0.218 OA
HETATM   42  N4  UNL     1      -7.147  -1.158  -0.031  1.00  0.00    -0.123 NA
ENDBRANCH  35  37
ENDBRANCH  33  35
ENDBRANCH  32  33
BRANCH  32  43
HETATM   43  C26 UNL     1      -3.298   2.426   0.493  1.00  0.00     0.010 C 
HETATM   44  C27 UNL     1      -4.572   3.236   0.511  1.00  0.00     0.012 C 
HETATM   45  C28 UNL     1      -2.211   3.397   0.048  1.00  0.00     0.012 C 
ENDBRANCH  32  43
ENDBRANCH  30  32
ENDBRANCH  29  30
ENDBRANCH  20  29
ENDBRANCH  18  20
ENDBRANCH  16  18
ENDBRANCH   8  16
ENDBRANCH   7   8
ENDBRANCH   4   6
ENDBRANCH   3   4
ENDBRANCH   2   3
TORSDOF 17
