REMARK  15 active torsions:
REMARK  status: ('A' for Active; 'I' for Inactive)
REMARK    1  A    between atoms: C2_2  and  O1_3 
REMARK    2  A    between atoms: O1_3  and  C3_4 
REMARK    3  A    between atoms: C3_4  and  C4_6 
REMARK    4  A    between atoms: C5_7  and  C6_8 
REMARK    5  A    between atoms: C6_8  and  C7_9 
REMARK    6  A    between atoms: C6_8  and  N2_16 
REMARK    7  A    between atoms: C7_9  and  C8_10 
REMARK       I    between atoms: N2_16  and  C12_17 
REMARK    8  A    between atoms: C12_17  and  C13_19 
REMARK    9  A    between atoms: C13_19  and  C14_20 
REMARK   10  A    between atoms: C13_19  and  N3_28 
REMARK   11  A    between atoms: C14_20  and  C15_21 
REMARK       I    between atoms: N3_28  and  C21_29 
REMARK   12  A    between atoms: C21_29  and  C22_31 
REMARK   13  A    between atoms: C22_31  and  N4_32 
REMARK   14  A    between atoms: C22_31  and  C28_41 
REMARK       I    between atoms: N4_32  and  C23_33 
REMARK   15  A    between atoms: C23_33  and  C24_35 
ROOT
HETATM    1  C1  UNL     1      -7.242   3.510   0.957  1.00  0.00     0.034 C 
HETATM    2  C2  UNL     1      -7.459   2.103   0.431  1.00  0.00     0.174 C 
ENDROOT
BRANCH   2   3
HETATM    3  O1  UNL     1      -6.215   1.662  -0.082  1.00  0.00    -0.319 OA
BRANCH   3   4
HETATM    4  C3  UNL     1      -5.635   2.391  -1.126  1.00  0.00     0.282 C 
HETATM    5  O2  UNL     1      -6.194   3.402  -1.595  1.00  0.00    -0.260 OA
BRANCH   4   6
HETATM    6  C4  UNL     1      -4.356   1.907  -1.627  1.00  0.00     0.080 C 
HETATM    7  C5  UNL     1      -3.744   0.849  -1.155  1.00  0.00     0.004 C 
BRANCH   7   8
HETATM    8  C6  UNL     1      -2.459   0.443  -1.729  1.00  0.00     0.108 C 
BRANCH   8   9
HETATM    9  C7  UNL     1      -2.467  -0.537  -2.818  1.00  0.00     0.043 C 
BRANCH   9  10
HETATM   10  C8  UNL     1      -3.021  -1.882  -2.635  1.00  0.00     0.081 C 
HETATM   11  C9  UNL     1      -4.445  -2.028  -2.262  1.00  0.00     0.034 C 
HETATM   12  C10 UNL     1      -4.413  -2.770  -0.920  1.00  0.00     0.123 C 
HETATM   13  N1  UNL     1      -3.129  -3.446  -0.899  1.00  0.00    -0.361 N 
HETATM   14  C11 UNL     1      -2.220  -2.778  -1.755  1.00  0.00     0.221 C 
HETATM   15  H16 UNL     1      -2.932  -4.302  -0.326  1.00  0.00     0.162 HD
HETATM   16  O3  UNL     1      -0.989  -2.885  -1.800  1.00  0.00    -0.273 OA
ENDBRANCH   9  10
ENDBRANCH   8   9
BRANCH   8  17
HETATM   17  N2  UNL     1      -1.601   0.053  -0.595  1.00  0.00    -0.351 N 
HETATM   18  C12 UNL     1      -0.418   0.692  -0.270  1.00  0.00     0.241 C 
HETATM   19  O4  UNL     1      -0.067   1.664  -1.004  1.00  0.00    -0.271 OA
HETATM   20  H17 UNL     1      -1.951  -0.763  -0.060  1.00  0.00     0.163 HD
BRANCH  18  21
HETATM   21  C13 UNL     1       0.449   0.319   0.850  1.00  0.00     0.180 C 
BRANCH  21  22
HETATM   22  C14 UNL     1      -0.069   0.635   2.222  1.00  0.00     0.073 C 
BRANCH  22  23
HETATM   23  C15 UNL     1      -1.333   0.034   2.628  1.00  0.00    -0.056 A 
HETATM   24  C16 UNL     1      -2.550   0.697   2.526  1.00  0.00     0.010 A 
HETATM   25  C17 UNL     1      -3.727   0.119   2.911  1.00  0.00     0.043 A 
HETATM   26  C18 UNL     1      -3.775  -1.159   3.424  1.00  0.00     0.116 A 
HETATM   27  F1  UNL     1      -4.938  -1.745   3.810  1.00  0.00    -0.206 F 
HETATM   28  C19 UNL     1      -2.567  -1.816   3.525  1.00  0.00     0.043 A 
HETATM   29  C20 UNL     1      -1.377  -1.259   3.146  1.00  0.00     0.010 A 
ENDBRANCH  22  23
ENDBRANCH  21  22
BRANCH  21  30
HETATM   30  N3  UNL     1       1.746   1.054   0.710  1.00  0.00    -0.346 N 
HETATM   31  C21 UNL     1       2.978   0.365   0.614  1.00  0.00     0.241 C 
HETATM   32  O5  UNL     1       2.968  -0.886   0.651  1.00  0.00    -0.271 OA
HETATM   33  H25 UNL     1       1.768   2.095   0.681  1.00  0.00     0.163 HD
BRANCH  31  34
HETATM   34  C22 UNL     1       4.267   1.074   0.473  1.00  0.00     0.180 C 
BRANCH  34  35
HETATM   35  N4  UNL     1       5.360   0.126   0.409  1.00  0.00    -0.342 N 
HETATM   36  C23 UNL     1       6.457   0.176   1.291  1.00  0.00     0.273 C 
HETATM   37  O6  UNL     1       6.500   1.068   2.164  1.00  0.00    -0.266 OA
HETATM   38  H27 UNL     1       5.338  -0.623  -0.315  1.00  0.00     0.163 HD
BRANCH  36  39
HETATM   39  C24 UNL     1       7.539  -0.783   1.209  1.00  0.00     0.154 A 
HETATM   40  C25 UNL     1       7.664  -1.854   0.316  1.00  0.00     0.074 A 
HETATM   41  C26 UNL     1       8.843  -2.499   0.596  1.00  0.00     0.077 A 
HETATM   42  C27 UNL     1       9.352  -3.700  -0.133  1.00  0.00     0.079 C 
HETATM   43  O7  UNL     1       9.387  -1.865   1.583  1.00  0.00    -0.218 OA
HETATM   44  N5  UNL     1       8.654  -0.861   1.964  1.00  0.00    -0.123 NA
ENDBRANCH  36  39
ENDBRANCH  34  35
BRANCH  34  45
HETATM   45  C28 UNL     1       4.218   1.945  -0.769  1.00  0.00     0.009 C 
HETATM   46  C29 UNL     1       3.981   1.156  -2.019  1.00  0.00     0.012 C 
HETATM   47  C30 UNL     1       5.419   2.858  -0.852  1.00  0.00     0.012 C 
ENDBRANCH  34  45
ENDBRANCH  31  34
ENDBRANCH  21  30
ENDBRANCH  18  21
ENDBRANCH   8  17
ENDBRANCH   7   8
ENDBRANCH   4   6
ENDBRANCH   3   4
ENDBRANCH   2   3
TORSDOF 15
