MODEL 1
REMARK VINA RESULT:      -7.6      0.000      0.000
REMARK  14 active torsions:
REMARK  status: ('A' for Active; 'I' for Inactive)
REMARK    1  A    between atoms: C2_2  and  O1_3 
REMARK    2  A    between atoms: O1_3  and  C3_4 
REMARK    3  A    between atoms: C3_4  and  C4_6 
REMARK    4  A    between atoms: C5_7  and  C6_8 
REMARK    5  A    between atoms: C6_8  and  C7_9 
REMARK    6  A    between atoms: C6_8  and  N2_16 
REMARK    7  A    between atoms: C7_9  and  C8_10 
REMARK       I    between atoms: N2_16  and  C12_17 
REMARK    8  A    between atoms: C12_17  and  C13_19 
REMARK    9  A    between atoms: C13_19  and  C14_20 
REMARK   10  A    between atoms: C13_19  and  N3_28 
REMARK   11  A    between atoms: C14_20  and  C15_21 
REMARK       I    between atoms: N3_28  and  C21_29 
REMARK   12  A    between atoms: C21_29  and  C22_31 
REMARK   13  A    between atoms: C22_31  and  N4_32 
REMARK       I    between atoms: N4_32  and  C23_33 
REMARK   14  A    between atoms: C23_33  and  C24_35 
ROOT
HETATM    1  C1  UNL     1     -12.361   7.652  71.263  1.00  0.00     0.034 C 
HETATM    2  C2  UNL     1     -11.698   8.848  71.943  1.00  0.00     0.174 C 
ENDROOT
BRANCH   2   3
HETATM    3  O1  UNL     1     -11.615   9.857  70.983  1.00  0.00    -0.319 OA
BRANCH   3   4
HETATM    4  C3  UNL     1     -12.301  11.075  71.056  1.00  0.00     0.282 C 
HETATM    5  O2  UNL     1     -13.176  11.181  71.938  1.00  0.00    -0.260 OA
BRANCH   4   6
HETATM    6  C4  UNL     1     -11.959  12.149  70.102  1.00  0.00     0.080 C 
HETATM    7  C5  UNL     1     -12.063  13.410  70.414  1.00  0.00     0.004 C 
BRANCH   7   8
HETATM    8  C6  UNL     1     -11.753  14.564  69.550  1.00  0.00     0.108 C 
BRANCH   8   9
HETATM    9  C7  UNL     1     -11.842  14.228  68.098  1.00  0.00     0.043 C 
BRANCH   9  10
HETATM   10  C8  UNL     1     -10.595  14.343  67.310  1.00  0.00     0.081 C 
HETATM   11  C9  UNL     1     -10.802  15.319  66.160  1.00  0.00     0.034 C 
HETATM   12  C10 UNL     1     -10.495  14.496  64.945  1.00  0.00     0.123 C 
HETATM   13  N1  UNL     1      -9.655  13.400  65.389  1.00  0.00    -0.361 N 
HETATM   14  C11 UNL     1     -10.036  13.135  66.733  1.00  0.00     0.221 C 
HETATM   15  H16 UNL     1      -8.907  12.902  64.819  1.00  0.00     0.162 HD
HETATM   16  O3  UNL     1      -9.885  12.018  67.270  1.00  0.00    -0.273 OA
ENDBRANCH   9  10
ENDBRANCH   8   9
BRANCH   8  17
HETATM   17  N2  UNL     1     -10.434  15.140  69.864  1.00  0.00    -0.351 N 
HETATM   18  C12 UNL     1     -10.300  16.338  70.580  1.00  0.00     0.241 C 
HETATM   19  O4  UNL     1     -11.400  16.915  70.956  1.00  0.00    -0.271 OA
HETATM   20  H17 UNL     1      -9.612  14.634  69.511  1.00  0.00     0.163 HD
BRANCH  18  21
HETATM   21  C13 UNL     1      -9.036  16.983  70.920  1.00  0.00     0.180 C 
BRANCH  21  22
HETATM   22  C14 UNL     1      -8.751  18.305  70.362  1.00  0.00     0.073 C 
BRANCH  22  23
HETATM   23  C15 UNL     1      -9.276  18.662  69.045  1.00  0.00    -0.056 A 
HETATM   24  C16 UNL     1      -8.688  18.127  67.890  1.00  0.00     0.010 A 
HETATM   25  C17 UNL     1      -9.166  18.377  66.625  1.00  0.00     0.043 A 
HETATM   26  C18 UNL     1     -10.269  19.183  66.439  1.00  0.00     0.116 A 
HETATM   27  F1  UNL     1     -10.756  19.444  65.186  1.00  0.00    -0.206 F 
HETATM   28  C19 UNL     1     -10.877  19.728  67.549  1.00  0.00     0.043 A 
HETATM   29  C20 UNL     1     -10.389  19.471  68.811  1.00  0.00     0.010 A 
ENDBRANCH  22  23
ENDBRANCH  21  22
BRANCH  21  30
HETATM   30  N3  UNL     1      -7.973  16.011  70.687  1.00  0.00    -0.346 N 
HETATM   31  C21 UNL     1      -6.749  15.925  71.379  1.00  0.00     0.239 C 
HETATM   32  O5  UNL     1      -6.658  16.833  72.280  1.00  0.00    -0.271 OA
HETATM   33  H25 UNL     1      -8.073  15.292  69.940  1.00  0.00     0.163 HD
BRANCH  31  34
HETATM   34  C22 UNL     1      -5.717  14.963  71.125  1.00  0.00     0.154 A 
HETATM   35  C28 UNL     1      -5.382  14.480  69.678  1.00  0.00    -0.022 A 
HETATM   36  C29 UNL     1      -4.136  13.439  69.742  1.00  0.00     0.017 C 
HETATM   37  C30 UNL     1      -6.447  13.456  69.047  1.00  0.00     0.017 C 
HETATM   38  C31 UNL     1      -5.494  14.838  69.587  1.00  0.00     0.053 A 
BRANCH  34  39
HETATM   39  N4  UNL     1      -6.070  13.794  71.924  1.00  0.00    -0.344 N 
HETATM   40  C23 UNL     1      -5.568  13.423  73.156  1.00  0.00     0.273 C 
HETATM   41  O6  UNL     1      -4.689  14.173  73.677  1.00  0.00    -0.266 OA
HETATM   42  H27 UNL     1      -6.782  13.219  71.470  1.00  0.00     0.163 HD
BRANCH  40  43
HETATM   43  C24 UNL     1      -5.968  12.256  73.894  1.00  0.00     0.154 A 
HETATM   44  C25 UNL     1      -6.364  12.137  75.221  1.00  0.00     0.074 A 
HETATM   45  C26 UNL     1      -6.648  10.804  75.468  1.00  0.00     0.077 A 
HETATM   46  C27 UNL     1      -7.109  10.216  76.761  1.00  0.00     0.079 C 
HETATM   47  O7  UNL     1      -6.425  10.198  74.344  1.00  0.00    -0.218 OA
HETATM   48  N5  UNL     1      -6.031  11.005  73.411  1.00  0.00    -0.123 NA
ENDBRANCH  40  43
ENDBRANCH  34  39
ENDBRANCH  31  34
ENDBRANCH  21  30
ENDBRANCH  18  21
ENDBRANCH   8  17
ENDBRANCH   7   8
ENDBRANCH   4   6
ENDBRANCH   3   4
ENDBRANCH   2   3
TORSDOF 14
BEGIN_RES HIS A  41
REMARK  2 active torsions:
REMARK  status: ('A' for Active; 'I' for Inactive)
REMARK    1  A    between atoms: CA   and  CB  
REMARK    2  A    between atoms: CB   and  CG  
ROOT
ATOM      1  CA  HIS A  41     -13.820  21.037  73.265  1.00 38.89     0.182 C 
ENDROOT
BRANCH   1   2
ATOM      2  CB  HIS A  41     -13.705  19.545  72.937  1.00 42.38     0.093 C 
BRANCH   2   3
ATOM      3  CG  HIS A  41     -14.180  19.185  71.564  1.00 37.90     0.028 A 
ATOM      4  CD2 HIS A  41     -15.331  18.613  71.139  1.00 37.33     0.114 A 
ATOM      5  NE2 HIS A  41     -15.252  18.515  69.771  1.00 41.88    -0.360 N 
ATOM      6  CE1 HIS A  41     -14.096  19.015  69.371  1.00 41.55     0.180 A 
ATOM      7  HE2 HIS A  41     -15.970  18.120  69.163  1.00  0.00     0.166 HD
ATOM      8  ND1 HIS A  41     -13.431  19.429  70.433  1.00 36.57    -0.354 N 
ATOM      9  HD1 HIS A  41     -12.507  19.861  70.419  1.00  0.00     0.166 HD
ENDBRANCH   2   3
ENDBRANCH   1   2
END_RES HIS A  41
BEGIN_RES CYS A 145
REMARK  1 active torsions:
REMARK  status: ('A' for Active; 'I' for Inactive)
REMARK    3  A    between atoms: CA   and  CB  
ROOT
ATOM     10  CA  CYS A 145     -14.607  19.162  64.101  1.00 29.71     0.186 C 
ENDROOT
BRANCH  10  11
ATOM     11  CB  CYS A 145     -14.100  19.110  65.541  1.00 31.75     0.120 C 
ATOM     12  SG  CYS A 145     -13.729  17.443  66.117  1.00 39.68    -0.095 SA
ENDBRANCH  10  11
END_RES CYS A 145
BEGIN_RES GLN A 189
REMARK  3 active torsions:
REMARK  status: ('A' for Active; 'I' for Inactive)
REMARK    4  A    between atoms: CA   and  CB  
REMARK    5  A    between atoms: CB   and  CG  
REMARK    6  A    between atoms: CG   and  CD  
REMARK       I    between atoms: CD   and  NE2 
ROOT
ATOM     13  CA  GLN A 189     -11.641  10.633  75.105  1.00 38.41     0.177 C 
ENDROOT
BRANCH  13  14
ATOM     14  CB  GLN A 189     -10.259  11.109  74.679  1.00 37.59     0.044 C 
BRANCH  14  15
ATOM     15  CG  GLN A 189     -10.289  12.340  73.787  1.00 45.60     0.105 C 
BRANCH  15  16
ATOM     16  CD  GLN A 189      -9.315  12.249  72.630  1.00 47.27     0.215 C 
ATOM     17  NE2 GLN A 189      -8.871  11.035  72.323  1.00 44.45    -0.370 N 
ATOM     18 2HE2 GLN A 189      -9.161  10.199  72.829  1.00  0.00     0.159 HD
ATOM     19 1HE2 GLN A 189      -8.215  10.974  71.544  1.00  0.00     0.159 HD
ATOM     20  OE1 GLN A 189      -8.965  13.259  72.020  1.00 41.09    -0.274 OA
ENDBRANCH  15  16
ENDBRANCH  14  15
ENDBRANCH  13  14
END_RES GLN A 189
BEGIN_RES ASN A 142
REMARK  2 active torsions:
REMARK  status: ('A' for Active; 'I' for Inactive)
REMARK    7  A    between atoms: CA   and  CB  
REMARK    8  A    between atoms: CB   and  CG  
REMARK       I    between atoms: CG   and  ND2 
ROOT
ATOM     21  CA  ASN A 142      -7.978  15.712  62.559  1.00 43.18     0.185 C 
ENDROOT
BRANCH  21  22
ATOM     22  CB  ASN A 142      -6.512  15.609  62.983  1.00 38.76     0.137 C 
BRANCH  22  23
ATOM     23  CG  ASN A 142      -6.349  15.298  64.459  1.00 50.71     0.217 C 
ATOM     24  ND2 ASN A 142      -5.168  14.824  64.836  1.00 55.08    -0.370 N 
ATOM     25 2HD2 ASN A 142      -4.402  14.670  64.180  1.00  0.00     0.159 HD
ATOM     26 1HD2 ASN A 142      -5.059  14.614  65.829  1.00  0.00     0.159 HD
ATOM     27  OD1 ASN A 142      -7.273  15.483  65.251  1.00 51.97    -0.274 OA
ENDBRANCH  22  23
ENDBRANCH  21  22
END_RES ASN A 142
BEGIN_RES LEU A  27
REMARK  2 active torsions:
REMARK  status: ('A' for Active; 'I' for Inactive)
REMARK    9  A    between atoms: CA   and  CB  
REMARK   10  A    between atoms: CB   and  CG  
ROOT
ATOM     28  CA  LEU A  27     -11.471  23.771  64.549  1.00 37.04     0.177 C 
ENDROOT
BRANCH  28  29
ATOM     29  CB  LEU A  27     -12.225  22.902  65.570  1.00 37.70     0.038 C 
BRANCH  29  30
ATOM     30  CG  LEU A  27     -12.622  23.441  66.944  1.00 36.32    -0.020 C 
ATOM     31  CD1 LEU A  27     -13.645  24.560  66.831  1.00 32.79     0.009 C 
ATOM     32  CD2 LEU A  27     -13.173  22.303  67.791  1.00 31.17     0.009 C 
ENDBRANCH  29  30
ENDBRANCH  28  29
END_RES LEU A  27
BEGIN_RES MET A  49
REMARK  3 active torsions:
REMARK  status: ('A' for Active; 'I' for Inactive)
REMARK   11  A    between atoms: CA   and  CB  
REMARK   12  A    between atoms: CB   and  CG  
REMARK   13  A    between atoms: CG   and  SD  
ROOT
ATOM     33  CA  MET A  49      -9.418  15.600  76.823  1.00 61.58     0.177 C 
ENDROOT
BRANCH  33  34
ATOM     34  CB  MET A  49      -8.930  15.410  75.386  1.00 62.15     0.045 C 
BRANCH  34  35
ATOM     35  CG  MET A  49      -9.570  16.368  74.394  1.00 60.24     0.076 C 
BRANCH  35  36
ATOM     36  SD  MET A  49     -11.229  16.888  74.873  1.00 77.15    -0.173 SA
ATOM     37  CE  MET A  49     -12.200  15.507  74.272  1.00 60.34     0.089 C 
ENDBRANCH  35  36
ENDBRANCH  34  35
ENDBRANCH  33  34
END_RES MET A  49
BEGIN_RES GLU A 166
REMARK  3 active torsions:
REMARK  status: ('A' for Active; 'I' for Inactive)
REMARK   14  A    between atoms: CA   and  CB  
REMARK   15  A    between atoms: CB   and  CG  
REMARK   16  A    between atoms: CG   and  CD  
ROOT
ATOM     38  CA  GLU A 166     -14.746   9.219  66.167  1.00 28.52     0.177 C 
ENDROOT
BRANCH  38  39
ATOM     39  CB  GLU A 166     -13.578   9.064  65.189  1.00 29.90     0.045 C 
BRANCH  39  40
ATOM     40  CG  GLU A 166     -12.396   9.983  65.432  1.00 36.08     0.116 C 
BRANCH  40  41
ATOM     41  CD  GLU A 166     -12.307  11.081  64.389  1.00 45.17     0.172 C 
ATOM     42  OE2 GLU A 166     -11.213  11.269  63.815  1.00 40.54    -0.648 OA
ATOM     43  OE1 GLU A 166     -13.331  11.750  64.134  1.00 50.70    -0.648 OA
ENDBRANCH  40  41
ENDBRANCH  39  40
ENDBRANCH  38  39
END_RES GLU A 166
BEGIN_RES HIS A 163
REMARK  2 active torsions:
REMARK  status: ('A' for Active; 'I' for Inactive)
REMARK   17  A    between atoms: CA   and  CB  
REMARK   18  A    between atoms: CB   and  CG  
ROOT
ATOM     44  CA  HIS A 163     -19.055  16.637  64.100  1.00 27.27     0.182 C 
ENDROOT
BRANCH  44  45
ATOM     45  CB  HIS A 163     -18.129  16.377  62.914  1.00 26.00     0.093 C 
BRANCH  45  46
ATOM     46  CG  HIS A 163     -17.094  15.331  63.184  1.00 26.66     0.028 A 
ATOM     47  ND1 HIS A 163     -15.750  15.623  63.275  1.00 26.97    -0.354 N 
ATOM     48  CE1 HIS A 163     -15.075  14.512  63.512  1.00 30.44     0.180 A 
ATOM     49  HD1 HIS A 163     -15.340  16.552  63.175  1.00  0.00     0.166 HD
ATOM     50  NE2 HIS A 163     -15.934  13.510  63.573  1.00 30.00    -0.360 N 
ATOM     51  CD2 HIS A 163     -17.203  13.995  63.370  1.00 29.24     0.114 A 
ATOM     52  HE2 HIS A 163     -15.693  12.533  63.742  1.00  0.00     0.166 HD
ENDBRANCH  45  46
ENDBRANCH  44  45
END_RES HIS A 163
BEGIN_RES HIS A 172
REMARK  2 active torsions:
REMARK  status: ('A' for Active; 'I' for Inactive)
REMARK   19  A    between atoms: CA   and  CB  
REMARK   20  A    between atoms: CB   and  CG  
ROOT
ATOM     53  CA  HIS A 172     -18.444   9.111  64.049  1.00 29.85     0.182 C 
ENDROOT
BRANCH  53  54
ATOM     54  CB  HIS A 172     -18.188  10.085  62.898  1.00 26.76     0.093 C 
BRANCH  54  55
ATOM     55  CG  HIS A 172     -16.929   9.798  62.141  1.00 28.76     0.028 A 
ATOM     56  CD2 HIS A 172     -16.727   9.210  60.938  1.00 29.36     0.114 A 
ATOM     57  NE2 HIS A 172     -15.372   9.208  60.711  1.00 33.77    -0.360 N 
ATOM     58  CE1 HIS A 172     -14.764   9.779  61.736  1.00 32.44     0.180 A 
ATOM     59  HE2 HIS A 172     -14.911   8.827  59.885  1.00  0.00     0.166 HD
ATOM     60  ND1 HIS A 172     -15.681  10.148  62.612  1.00 29.32    -0.354 N 
ATOM     61  HD1 HIS A 172     -15.496  10.617  63.499  1.00  0.00     0.166 HD
ENDBRANCH  54  55
ENDBRANCH  53  54
END_RES HIS A 172
BEGIN_RES THR A  26
REMARK  2 active torsions:
REMARK  status: ('A' for Active; 'I' for Inactive)
REMARK   21  A    between atoms: CA   and  CB  
REMARK   22  A    between atoms: CB   and  OG1 
ROOT
ATOM     62  CA  THR A  26      -8.224  25.031  66.060  1.00 43.98     0.205 C 
ENDROOT
BRANCH  62  63
ATOM     63  CB  THR A  26      -7.184  25.490  65.034  1.00 45.90     0.146 C 
ATOM     64  CG2 THR A  26      -7.853  26.020  63.764  1.00 47.20     0.042 C 
BRANCH  63  65
ATOM     65  OG1 THR A  26      -6.356  26.509  65.605  1.00 50.51    -0.393 OA
ATOM     66  HG1 THR A  26      -5.657  26.111  66.111  1.00  0.00     0.210 HD
ENDBRANCH  63  65
ENDBRANCH  62  63
END_RES THR A  26
ENDMDL
MODEL 2
REMARK VINA RESULT:      -7.6      2.104      3.312
REMARK  14 active torsions:
REMARK  status: ('A' for Active; 'I' for Inactive)
REMARK    1  A    between atoms: C2_2  and  O1_3 
REMARK    2  A    between atoms: O1_3  and  C3_4 
REMARK    3  A    between atoms: C3_4  and  C4_6 
REMARK    4  A    between atoms: C5_7  and  C6_8 
REMARK    5  A    between atoms: C6_8  and  C7_9 
REMARK    6  A    between atoms: C6_8  and  N2_16 
REMARK    7  A    between atoms: C7_9  and  C8_10 
REMARK       I    between atoms: N2_16  and  C12_17 
REMARK    8  A    between atoms: C12_17  and  C13_19 
REMARK    9  A    between atoms: C13_19  and  C14_20 
REMARK   10  A    between atoms: C13_19  and  N3_28 
REMARK   11  A    between atoms: C14_20  and  C15_21 
REMARK       I    between atoms: N3_28  and  C21_29 
REMARK   12  A    between atoms: C21_29  and  C22_31 
REMARK   13  A    between atoms: C22_31  and  N4_32 
REMARK       I    between atoms: N4_32  and  C23_33 
REMARK   14  A    between atoms: C23_33  and  C24_35 
ROOT
HETATM    1  C1  UNL     1     -14.685   7.924  71.642  1.00  0.00     0.034 C 
HETATM    2  C2  UNL     1     -13.776   8.900  72.385  1.00  0.00     0.174 C 
ENDROOT
BRANCH   2   3
HETATM    3  O1  UNL     1     -13.389   9.868  71.457  1.00  0.00    -0.319 OA
BRANCH   3   4
HETATM    4  C3  UNL     1     -12.215   9.808  70.696  1.00  0.00     0.282 C 
HETATM    5  O2  UNL     1     -11.420   8.883  70.953  1.00  0.00    -0.260 OA
BRANCH   4   6
HETATM    6  C4  UNL     1     -11.985  10.826  69.651  1.00  0.00     0.080 C 
HETATM    7  C5  UNL     1     -12.038  12.103  69.907  1.00  0.00     0.004 C 
BRANCH   7   8
HETATM    8  C6  UNL     1     -11.828  13.205  68.951  1.00  0.00     0.108 C 
BRANCH   8   9
HETATM    9  C7  UNL     1     -11.634  12.718  67.553  1.00  0.00     0.043 C 
BRANCH   9  10
HETATM   10  C8  UNL     1     -11.911  13.683  66.467  1.00  0.00     0.081 C 
HETATM   11  C9  UNL     1     -12.480  12.949  65.260  1.00  0.00     0.034 C 
HETATM   12  C10 UNL     1     -11.515  13.283  64.163  1.00  0.00     0.123 C 
HETATM   13  N1  UNL     1     -10.847  14.509  64.556  1.00  0.00    -0.361 N 
HETATM   14  C11 UNL     1     -10.814  14.497  65.977  1.00  0.00     0.221 C 
HETATM   15  H16 UNL     1     -10.466  15.260  63.906  1.00  0.00     0.162 HD
HETATM   16  O3  UNL     1      -9.952  15.112  66.638  1.00  0.00    -0.273 OA
ENDBRANCH   9  10
ENDBRANCH   8   9
BRANCH   8  17
HETATM   17  N2  UNL     1     -10.704  14.069  69.354  1.00  0.00    -0.351 N 
HETATM   18  C12 UNL     1     -10.900  15.393  69.771  1.00  0.00     0.241 C 
HETATM   19  O4  UNL     1     -12.125  15.821  69.786  1.00  0.00    -0.271 OA
HETATM   20  H17 UNL     1      -9.762  13.662  69.292  1.00  0.00     0.163 HD
BRANCH  18  21
HETATM   21  C13 UNL     1      -9.845  16.318  70.172  1.00  0.00     0.180 C 
BRANCH  21  22
HETATM   22  C14 UNL     1     -10.071  17.754  70.006  1.00  0.00     0.073 C 
BRANCH  22  23
HETATM   23  C15 UNL     1      -8.977  18.609  69.548  1.00  0.00    -0.056 A 
HETATM   24  C16 UNL     1      -7.967  18.990  70.441  1.00  0.00     0.010 A 
HETATM   25  C17 UNL     1      -6.882  19.746  70.063  1.00  0.00     0.043 A 
HETATM   26  C18 UNL     1      -6.743  20.168  68.758  1.00  0.00     0.116 A 
HETATM   27  F1  UNL     1      -5.670  20.924  68.365  1.00  0.00    -0.206 F 
HETATM   28  C19 UNL     1      -7.715  19.814  67.848  1.00  0.00     0.043 A 
HETATM   29  C20 UNL     1      -8.796  19.057  68.238  1.00  0.00     0.010 A 
ENDBRANCH  22  23
ENDBRANCH  21  22
BRANCH  21  30
HETATM   30  N3  UNL     1      -8.601  15.851  69.569  1.00  0.00    -0.346 N 
HETATM   31  C21 UNL     1      -7.419  15.501  70.250  1.00  0.00     0.239 C 
HETATM   32  O5  UNL     1      -7.552  15.643  71.517  1.00  0.00    -0.271 OA
HETATM   33  H25 UNL     1      -8.522  15.756  68.534  1.00  0.00     0.163 HD
BRANCH  31  34
HETATM   34  C22 UNL     1      -6.207  15.051  69.631  1.00  0.00     0.154 A 
HETATM   35  C28 UNL     1      -5.111  16.052  69.143  1.00  0.00    -0.022 A 
HETATM   36  C29 UNL     1      -3.856  15.214  68.544  1.00  0.00     0.017 C 
HETATM   37  C30 UNL     1      -5.474  16.836  67.788  1.00  0.00     0.017 C 
HETATM   38  C31 UNL     1      -5.243  16.262  69.440  1.00  0.00     0.053 A 
BRANCH  34  39
HETATM   39  N4  UNL     1      -6.629  14.247  68.490  1.00  0.00    -0.344 N 
HETATM   40  C23 UNL     1      -7.370  13.081  68.497  1.00  0.00     0.273 C 
HETATM   41  O6  UNL     1      -7.738  12.633  69.624  1.00  0.00    -0.266 OA
HETATM   42  H27 UNL     1      -6.314  14.644  67.602  1.00  0.00     0.163 HD
BRANCH  40  43
HETATM   43  C24 UNL     1      -7.758  12.341  67.328  1.00  0.00     0.154 A 
HETATM   44  C25 UNL     1      -8.835  11.483  67.137  1.00  0.00     0.074 A 
HETATM   45  C26 UNL     1      -8.782  11.008  65.837  1.00  0.00     0.077 A 
HETATM   46  C27 UNL     1      -9.739  10.058  65.196  1.00  0.00     0.079 C 
HETATM   47  O7  UNL     1      -7.733  11.564  65.317  1.00  0.00    -0.218 OA
HETATM   48  N5  UNL     1      -7.117  12.341  66.149  1.00  0.00    -0.123 NA
ENDBRANCH  40  43
ENDBRANCH  34  39
ENDBRANCH  31  34
ENDBRANCH  21  30
ENDBRANCH  18  21
ENDBRANCH   8  17
ENDBRANCH   7   8
ENDBRANCH   4   6
ENDBRANCH   3   4
ENDBRANCH   2   3
TORSDOF 14
BEGIN_RES HIS A  41
REMARK  2 active torsions:
REMARK  status: ('A' for Active; 'I' for Inactive)
REMARK    1  A    between atoms: CA   and  CB  
REMARK    2  A    between atoms: CB   and  CG  
ROOT
ATOM      1  CA  HIS A  41     -13.820  21.037  73.265  1.00 38.89     0.182 C 
ENDROOT
BRANCH   1   2
ATOM      2  CB  HIS A  41     -13.705  19.545  72.937  1.00 42.38     0.093 C 
BRANCH   2   3
ATOM      3  CG  HIS A  41     -13.968  19.215  71.501  1.00 37.90     0.028 A 
ATOM      4  CD2 HIS A  41     -14.977  18.532  70.912  1.00 37.33     0.114 A 
ATOM      5  NE2 HIS A  41     -14.729  18.530  69.561  1.00 41.88    -0.360 N 
ATOM      6  CE1 HIS A  41     -13.610  19.194  69.328  1.00 41.55     0.180 A 
ATOM      7  HE2 HIS A  41     -15.314  18.088  68.851  1.00  0.00     0.166 HD
ATOM      8  ND1 HIS A  41     -13.132  19.620  70.483  1.00 36.57    -0.354 N 
ATOM      9  HD1 HIS A  41     -12.277  20.165  70.602  1.00  0.00     0.166 HD
ENDBRANCH   2   3
ENDBRANCH   1   2
END_RES HIS A  41
BEGIN_RES CYS A 145
REMARK  1 active torsions:
REMARK  status: ('A' for Active; 'I' for Inactive)
REMARK    3  A    between atoms: CA   and  CB  
ROOT
ATOM     10  CA  CYS A 145     -14.607  19.162  64.101  1.00 29.71     0.186 C 
ENDROOT
BRANCH  10  11
ATOM     11  CB  CYS A 145     -14.100  19.110  65.541  1.00 31.75     0.120 C 
ATOM     12  SG  CYS A 145     -13.466  17.495  66.026  1.00 39.68    -0.095 SA
ENDBRANCH  10  11
END_RES CYS A 145
BEGIN_RES GLN A 189
REMARK  3 active torsions:
REMARK  status: ('A' for Active; 'I' for Inactive)
REMARK    4  A    between atoms: CA   and  CB  
REMARK    5  A    between atoms: CB   and  CG  
REMARK    6  A    between atoms: CG   and  CD  
REMARK       I    between atoms: CD   and  NE2 
ROOT
ATOM     13  CA  GLN A 189     -11.641  10.633  75.105  1.00 38.41     0.177 C 
ENDROOT
BRANCH  13  14
ATOM     14  CB  GLN A 189     -10.259  11.109  74.679  1.00 37.59     0.044 C 
BRANCH  14  15
ATOM     15  CG  GLN A 189     -10.140  11.368  73.186  1.00 45.60     0.105 C 
BRANCH  15  16
ATOM     16  CD  GLN A 189     -10.221  12.841  72.839  1.00 47.27     0.215 C 
ATOM     17  NE2 GLN A 189      -9.130  13.387  72.313  1.00 44.45    -0.370 N 
ATOM     18 2HE2 GLN A 189      -8.275  12.857  72.146  1.00  0.00     0.159 HD
ATOM     19 1HE2 GLN A 189      -9.185  14.379  72.080  1.00  0.00     0.159 HD
ATOM     20  OE1 GLN A 189     -11.254  13.481  73.040  1.00 41.09    -0.274 OA
ENDBRANCH  15  16
ENDBRANCH  14  15
ENDBRANCH  13  14
END_RES GLN A 189
BEGIN_RES ASN A 142
REMARK  2 active torsions:
REMARK  status: ('A' for Active; 'I' for Inactive)
REMARK    7  A    between atoms: CA   and  CB  
REMARK    8  A    between atoms: CB   and  CG  
REMARK       I    between atoms: CG   and  ND2 
ROOT
ATOM     21  CA  ASN A 142      -7.978  15.712  62.559  1.00 43.18     0.185 C 
ENDROOT
BRANCH  21  22
ATOM     22  CB  ASN A 142      -6.512  15.609  62.983  1.00 38.76     0.137 C 
BRANCH  22  23
ATOM     23  CG  ASN A 142      -6.350  15.258  64.450  1.00 50.71     0.217 C 
ATOM     24  ND2 ASN A 142      -7.445  15.321  65.198  1.00 55.08    -0.370 N 
ATOM     25 2HD2 ASN A 142      -8.354  15.591  64.820  1.00  0.00     0.159 HD
ATOM     26 1HD2 ASN A 142      -7.336  15.085  66.184  1.00  0.00     0.159 HD
ATOM     27  OD1 ASN A 142      -5.254  14.933  64.906  1.00 51.97    -0.274 OA
ENDBRANCH  22  23
ENDBRANCH  21  22
END_RES ASN A 142
BEGIN_RES LEU A  27
REMARK  2 active torsions:
REMARK  status: ('A' for Active; 'I' for Inactive)
REMARK    9  A    between atoms: CA   and  CB  
REMARK   10  A    between atoms: CB   and  CG  
ROOT
ATOM     28  CA  LEU A  27     -11.471  23.771  64.549  1.00 37.04     0.177 C 
ENDROOT
BRANCH  28  29
ATOM     29  CB  LEU A  27     -12.225  22.902  65.570  1.00 37.70     0.038 C 
BRANCH  29  30
ATOM     30  CG  LEU A  27     -12.369  23.325  67.032  1.00 36.32    -0.020 C 
ATOM     31  CD1 LEU A  27     -13.822  23.579  67.400  1.00 32.79     0.009 C 
ATOM     32  CD2 LEU A  27     -11.776  22.247  67.928  1.00 31.17     0.009 C 
ENDBRANCH  29  30
ENDBRANCH  28  29
END_RES LEU A  27
BEGIN_RES MET A  49
REMARK  3 active torsions:
REMARK  status: ('A' for Active; 'I' for Inactive)
REMARK   11  A    between atoms: CA   and  CB  
REMARK   12  A    between atoms: CB   and  CG  
REMARK   13  A    between atoms: CG   and  SD  
ROOT
ATOM     33  CA  MET A  49      -9.418  15.600  76.823  1.00 61.58     0.177 C 
ENDROOT
BRANCH  33  34
ATOM     34  CB  MET A  49      -8.930  15.410  75.386  1.00 62.15     0.045 C 
BRANCH  34  35
ATOM     35  CG  MET A  49      -9.609  16.332  74.385  1.00 60.24     0.076 C 
BRANCH  35  36
ATOM     36  SD  MET A  49     -11.266  16.834  74.888  1.00 77.15    -0.173 SA
ATOM     37  CE  MET A  49     -12.180  16.537  73.375  1.00 60.34     0.089 C 
ENDBRANCH  35  36
ENDBRANCH  34  35
ENDBRANCH  33  34
END_RES MET A  49
BEGIN_RES GLU A 166
REMARK  3 active torsions:
REMARK  status: ('A' for Active; 'I' for Inactive)
REMARK   14  A    between atoms: CA   and  CB  
REMARK   15  A    between atoms: CB   and  CG  
REMARK   16  A    between atoms: CG   and  CD  
ROOT
ATOM     38  CA  GLU A 166     -14.746   9.219  66.167  1.00 28.52     0.177 C 
ENDROOT
BRANCH  38  39
ATOM     39  CB  GLU A 166     -13.578   9.064  65.189  1.00 29.90     0.045 C 
BRANCH  39  40
ATOM     40  CG  GLU A 166     -13.602   7.811  64.335  1.00 36.08     0.116 C 
BRANCH  40  41
ATOM     41  CD  GLU A 166     -12.475   7.793  63.320  1.00 45.17     0.172 C 
ATOM     42  OE2 GLU A 166     -12.131   8.873  62.795  1.00 40.54    -0.648 OA
ATOM     43  OE1 GLU A 166     -11.925   6.703  63.055  1.00 50.70    -0.648 OA
ENDBRANCH  40  41
ENDBRANCH  39  40
ENDBRANCH  38  39
END_RES GLU A 166
BEGIN_RES HIS A 163
REMARK  2 active torsions:
REMARK  status: ('A' for Active; 'I' for Inactive)
REMARK   17  A    between atoms: CA   and  CB  
REMARK   18  A    between atoms: CB   and  CG  
ROOT
ATOM     44  CA  HIS A 163     -19.055  16.637  64.100  1.00 27.27     0.182 C 
ENDROOT
BRANCH  44  45
ATOM     45  CB  HIS A 163     -18.129  16.377  62.914  1.00 26.00     0.093 C 
BRANCH  45  46
ATOM     46  CG  HIS A 163     -17.099  15.325  63.181  1.00 26.66     0.028 A 
ATOM     47  ND1 HIS A 163     -15.753  15.608  63.262  1.00 26.97    -0.354 N 
ATOM     48  CE1 HIS A 163     -15.084  14.494  63.499  1.00 30.44     0.180 A 
ATOM     49  HD1 HIS A 163     -15.337  16.534  63.157  1.00  0.00     0.166 HD
ATOM     50  NE2 HIS A 163     -15.949  13.497  63.569  1.00 30.00    -0.360 N 
ATOM     51  CD2 HIS A 163     -17.216  13.990  63.373  1.00 29.24     0.114 A 
ATOM     52  HE2 HIS A 163     -15.714  12.520  63.740  1.00  0.00     0.166 HD
ENDBRANCH  45  46
ENDBRANCH  44  45
END_RES HIS A 163
BEGIN_RES HIS A 172
REMARK  2 active torsions:
REMARK  status: ('A' for Active; 'I' for Inactive)
REMARK   19  A    between atoms: CA   and  CB  
REMARK   20  A    between atoms: CB   and  CG  
ROOT
ATOM     53  CA  HIS A 172     -18.444   9.111  64.049  1.00 29.85     0.182 C 
ENDROOT
BRANCH  53  54
ATOM     54  CB  HIS A 172     -18.188  10.085  62.898  1.00 26.76     0.093 C 
BRANCH  54  55
ATOM     55  CG  HIS A 172     -16.878   9.864  62.208  1.00 28.76     0.028 A 
ATOM     56  CD2 HIS A 172     -15.621  10.238  62.542  1.00 29.36     0.114 A 
ATOM     57  NE2 HIS A 172     -14.783   9.765  61.561  1.00 33.77    -0.360 N 
ATOM     58  CE1 HIS A 172     -15.500   9.118  60.659  1.00 32.44     0.180 A 
ATOM     59  HE2 HIS A 172     -13.772   9.892  61.534  1.00  0.00     0.166 HD
ATOM     60  ND1 HIS A 172     -16.769   9.159  61.028  1.00 29.32    -0.354 N 
ATOM     61  HD1 HIS A 172     -17.545   8.737  60.519  1.00  0.00     0.166 HD
ENDBRANCH  54  55
ENDBRANCH  53  54
END_RES HIS A 172
BEGIN_RES THR A  26
REMARK  2 active torsions:
REMARK  status: ('A' for Active; 'I' for Inactive)
REMARK   21  A    between atoms: CA   and  CB  
REMARK   22  A    between atoms: CB   and  OG1 
ROOT
ATOM     62  CA  THR A  26      -8.224  25.031  66.060  1.00 43.98     0.205 C 
ENDROOT
BRANCH  62  63
ATOM     63  CB  THR A  26      -7.184  25.490  65.034  1.00 45.90     0.146 C 
ATOM     64  CG2 THR A  26      -7.853  26.007  63.759  1.00 47.20     0.042 C 
BRANCH  63  65
ATOM     65  OG1 THR A  26      -6.365  26.518  65.600  1.00 50.51    -0.393 OA
ATOM     66  HG1 THR A  26      -6.777  26.864  66.384  1.00  0.00     0.210 HD
ENDBRANCH  63  65
ENDBRANCH  62  63
END_RES THR A  26
ENDMDL
MODEL 3
REMARK VINA RESULT:      -7.5      2.074      3.391
REMARK  14 active torsions:
REMARK  status: ('A' for Active; 'I' for Inactive)
REMARK    1  A    between atoms: C2_2  and  O1_3 
REMARK    2  A    between atoms: O1_3  and  C3_4 
REMARK    3  A    between atoms: C3_4  and  C4_6 
REMARK    4  A    between atoms: C5_7  and  C6_8 
REMARK    5  A    between atoms: C6_8  and  C7_9 
REMARK    6  A    between atoms: C6_8  and  N2_16 
REMARK    7  A    between atoms: C7_9  and  C8_10 
REMARK       I    between atoms: N2_16  and  C12_17 
REMARK    8  A    between atoms: C12_17  and  C13_19 
REMARK    9  A    between atoms: C13_19  and  C14_20 
REMARK   10  A    between atoms: C13_19  and  N3_28 
REMARK   11  A    between atoms: C14_20  and  C15_21 
REMARK       I    between atoms: N3_28  and  C21_29 
REMARK   12  A    between atoms: C21_29  and  C22_31 
REMARK   13  A    between atoms: C22_31  and  N4_32 
REMARK       I    between atoms: N4_32  and  C23_33 
REMARK   14  A    between atoms: C23_33  and  C24_35 
ROOT
HETATM    1  C1  UNL     1     -12.727   9.235  71.762  1.00  0.00     0.034 C 
HETATM    2  C2  UNL     1     -12.695  10.632  71.148  1.00  0.00     0.174 C 
ENDROOT
BRANCH   2   3
HETATM    3  O1  UNL     1     -13.419  11.462  72.005  1.00  0.00    -0.319 OA
BRANCH   3   4
HETATM    4  C3  UNL     1     -13.420  12.860  71.938  1.00  0.00     0.282 C 
HETATM    5  O2  UNL     1     -14.220  13.462  72.681  1.00  0.00    -0.260 OA
BRANCH   4   6
HETATM    6  C4  UNL     1     -12.491  13.534  71.009  1.00  0.00     0.080 C 
HETATM    7  C5  UNL     1     -12.667  14.768  70.630  1.00  0.00     0.004 C 
BRANCH   7   8
HETATM    8  C6  UNL     1     -11.812  15.542  69.712  1.00  0.00     0.108 C 
BRANCH   8   9
HETATM    9  C7  UNL     1     -11.659  14.880  68.382  1.00  0.00     0.043 C 
BRANCH   9  10
HETATM   10  C8  UNL     1     -11.265  15.745  67.249  1.00  0.00     0.081 C 
HETATM   11  C9  UNL     1     -11.960  15.275  65.978  1.00  0.00     0.034 C 
HETATM   12  C10 UNL     1     -10.821  14.980  65.048  1.00  0.00     0.123 C 
HETATM   13  N1  UNL     1      -9.687  15.748  65.524  1.00  0.00    -0.361 N 
HETATM   14  C11 UNL     1      -9.854  15.860  66.932  1.00  0.00     0.221 C 
HETATM   15  H16 UNL     1      -8.896  16.146  64.933  1.00  0.00     0.162 HD
HETATM   16  O3  UNL     1      -8.896  16.030  67.715  1.00  0.00    -0.273 OA
ENDBRANCH   9  10
ENDBRANCH   8   9
BRANCH   8  17
HETATM   17  N2  UNL     1     -10.491  15.821  70.302  1.00  0.00    -0.351 N 
HETATM   18  C12 UNL     1     -10.095  17.119  70.652  1.00  0.00     0.241 C 
HETATM   19  O4  UNL     1     -10.954  18.067  70.432  1.00  0.00    -0.271 OA
HETATM   20  H17 UNL     1      -9.860  15.019  70.423  1.00  0.00     0.163 HD
BRANCH  18  21
HETATM   21  C13 UNL     1      -8.804  17.483  71.227  1.00  0.00     0.180 C 
BRANCH  21  22
HETATM   22  C14 UNL     1      -8.498  18.901  71.422  1.00  0.00     0.073 C 
BRANCH  22  23
HETATM   23  C15 UNL     1      -7.217  19.434  70.960  1.00  0.00    -0.056 A 
HETATM   24  C16 UNL     1      -7.064  19.822  69.622  1.00  0.00     0.010 A 
HETATM   25  C17 UNL     1      -5.906  20.381  69.136  1.00  0.00     0.043 A 
HETATM   26  C18 UNL     1      -4.825  20.588  69.965  1.00  0.00     0.116 A 
HETATM   27  F1  UNL     1      -3.663  21.141  69.496  1.00  0.00    -0.206 F 
HETATM   28  C19 UNL     1      -4.935  20.221  71.289  1.00  0.00     0.043 A 
HETATM   29  C20 UNL     1      -6.100  19.661  71.765  1.00  0.00     0.010 A 
ENDBRANCH  22  23
ENDBRANCH  21  22
BRANCH  21  30
HETATM   30  N3  UNL     1      -7.775  16.763  70.484  1.00  0.00    -0.346 N 
HETATM   31  C21 UNL     1      -6.769  15.940  71.028  1.00  0.00     0.239 C 
HETATM   32  O5  UNL     1      -6.852  15.886  72.306  1.00  0.00    -0.271 OA
HETATM   33  H25 UNL     1      -7.730  16.836  69.446  1.00  0.00     0.163 HD
BRANCH  31  34
HETATM   34  C22 UNL     1      -5.766  15.249  70.274  1.00  0.00     0.154 A 
HETATM   35  C28 UNL     1      -4.516  15.986  69.697  1.00  0.00    -0.022 A 
HETATM   36  C29 UNL     1      -3.560  14.907  68.949  1.00  0.00     0.017 C 
HETATM   37  C30 UNL     1      -4.810  16.898  68.407  1.00  0.00     0.017 C 
HETATM   38  C31 UNL     1      -4.564  16.207  70.011  1.00  0.00     0.053 A 
BRANCH  34  39
HETATM   39  N4  UNL     1      -6.476  14.622  69.165  1.00  0.00    -0.344 N 
HETATM   40  C23 UNL     1      -6.969  13.334  69.089  1.00  0.00     0.273 C 
HETATM   41  O6  UNL     1      -6.792  12.583  70.094  1.00  0.00    -0.266 OA
HETATM   42  H27 UNL     1      -6.599  15.261  68.377  1.00  0.00     0.163 HD
BRANCH  40  43
HETATM   43  C24 UNL     1      -7.668  12.781  67.962  1.00  0.00     0.154 A 
HETATM   44  C25 UNL     1      -9.004  12.417  67.837  1.00  0.00     0.074 A 
HETATM   45  C26 UNL     1      -9.199  11.929  66.555  1.00  0.00     0.077 A 
HETATM   46  C27 UNL     1     -10.481  11.422  65.981  1.00  0.00     0.079 C 
HETATM   47  O7  UNL     1      -8.039  12.012  65.982  1.00  0.00    -0.218 OA
HETATM   48  N5  UNL     1      -7.131  12.500  66.764  1.00  0.00    -0.123 NA
ENDBRANCH  40  43
ENDBRANCH  34  39
ENDBRANCH  31  34
ENDBRANCH  21  30
ENDBRANCH  18  21
ENDBRANCH   8  17
ENDBRANCH   7   8
ENDBRANCH   4   6
ENDBRANCH   3   4
ENDBRANCH   2   3
TORSDOF 14
BEGIN_RES HIS A  41
REMARK  2 active torsions:
REMARK  status: ('A' for Active; 'I' for Inactive)
REMARK    1  A    between atoms: CA   and  CB  
REMARK    2  A    between atoms: CB   and  CG  
ROOT
ATOM      1  CA  HIS A  41     -13.820  21.037  73.265  1.00 38.89     0.182 C 
ENDROOT
BRANCH   1   2
ATOM      2  CB  HIS A  41     -13.705  19.545  72.937  1.00 42.38     0.093 C 
BRANCH   2   3
ATOM      3  CG  HIS A  41     -14.090  19.199  71.533  1.00 37.90     0.028 A 
ATOM      4  CD2 HIS A  41     -15.095  18.434  71.045  1.00 37.33     0.114 A 
ATOM      5  NE2 HIS A  41     -14.994  18.458  69.676  1.00 41.88    -0.360 N 
ATOM      6  CE1 HIS A  41     -13.966  19.215  69.335  1.00 41.55     0.180 A 
ATOM      7  HE2 HIS A  41     -15.612  17.969  69.027  1.00  0.00     0.166 HD
ATOM      8  ND1 HIS A  41     -13.405  19.677  70.437  1.00 36.57    -0.354 N 
ATOM      9  HD1 HIS A  41     -12.592  20.292  70.472  1.00  0.00     0.166 HD
ENDBRANCH   2   3
ENDBRANCH   1   2
END_RES HIS A  41
BEGIN_RES CYS A 145
REMARK  1 active torsions:
REMARK  status: ('A' for Active; 'I' for Inactive)
REMARK    3  A    between atoms: CA   and  CB  
ROOT
ATOM     10  CA  CYS A 145     -14.607  19.162  64.101  1.00 29.71     0.186 C 
ENDROOT
BRANCH  10  11
ATOM     11  CB  CYS A 145     -14.100  19.110  65.541  1.00 31.75     0.120 C 
ATOM     12  SG  CYS A 145     -12.303  19.080  65.674  1.00 39.68    -0.095 SA
ENDBRANCH  10  11
END_RES CYS A 145
BEGIN_RES GLN A 189
REMARK  3 active torsions:
REMARK  status: ('A' for Active; 'I' for Inactive)
REMARK    4  A    between atoms: CA   and  CB  
REMARK    5  A    between atoms: CB   and  CG  
REMARK    6  A    between atoms: CG   and  CD  
REMARK       I    between atoms: CD   and  NE2 
ROOT
ATOM     13  CA  GLN A 189     -11.641  10.633  75.105  1.00 38.41     0.177 C 
ENDROOT
BRANCH  13  14
ATOM     14  CB  GLN A 189     -10.259  11.109  74.679  1.00 37.59     0.044 C 
BRANCH  14  15
ATOM     15  CG  GLN A 189     -10.281  12.037  73.475  1.00 45.60     0.105 C 
BRANCH  15  16
ATOM     16  CD  GLN A 189      -8.905  12.557  73.111  1.00 47.27     0.215 C 
ATOM     17  NE2 GLN A 189      -8.841  13.392  72.080  1.00 44.45    -0.370 N 
ATOM     18 2HE2 GLN A 189      -9.665  13.678  71.550  1.00  0.00     0.159 HD
ATOM     19 1HE2 GLN A 189      -7.915  13.742  71.834  1.00  0.00     0.159 HD
ATOM     20  OE1 GLN A 189      -7.911  12.212  73.750  1.00 41.09    -0.274 OA
ENDBRANCH  15  16
ENDBRANCH  14  15
ENDBRANCH  13  14
END_RES GLN A 189
BEGIN_RES ASN A 142
REMARK  2 active torsions:
REMARK  status: ('A' for Active; 'I' for Inactive)
REMARK    7  A    between atoms: CA   and  CB  
REMARK    8  A    between atoms: CB   and  CG  
REMARK       I    between atoms: CG   and  ND2 
ROOT
ATOM     21  CA  ASN A 142      -7.978  15.712  62.559  1.00 43.18     0.185 C 
ENDROOT
BRANCH  21  22
ATOM     22  CB  ASN A 142      -6.512  15.609  62.983  1.00 38.76     0.137 C 
BRANCH  22  23
ATOM     23  CG  ASN A 142      -6.344  15.026  64.373  1.00 50.71     0.217 C 
ATOM     24  ND2 ASN A 142      -5.876  13.785  64.441  1.00 55.08    -0.370 N 
ATOM     25 2HD2 ASN A 142      -5.639  13.241  63.611  1.00  0.00     0.159 HD
ATOM     26 1HD2 ASN A 142      -5.763  13.392  65.376  1.00  0.00     0.159 HD
ATOM     27  OD1 ASN A 142      -6.629  15.682  65.374  1.00 51.97    -0.274 OA
ENDBRANCH  22  23
ENDBRANCH  21  22
END_RES ASN A 142
BEGIN_RES LEU A  27
REMARK  2 active torsions:
REMARK  status: ('A' for Active; 'I' for Inactive)
REMARK    9  A    between atoms: CA   and  CB  
REMARK   10  A    between atoms: CB   and  CG  
ROOT
ATOM     28  CA  LEU A  27     -11.471  23.771  64.549  1.00 37.04     0.177 C 
ENDROOT
BRANCH  28  29
ATOM     29  CB  LEU A  27     -12.225  22.902  65.570  1.00 37.70     0.038 C 
BRANCH  29  30
ATOM     30  CG  LEU A  27     -12.519  23.399  66.985  1.00 36.32    -0.020 C 
ATOM     31  CD1 LEU A  27     -13.884  24.063  67.073  1.00 32.79     0.009 C 
ATOM     32  CD2 LEU A  27     -12.433  22.232  67.957  1.00 31.17     0.009 C 
ENDBRANCH  29  30
ENDBRANCH  28  29
END_RES LEU A  27
BEGIN_RES MET A  49
REMARK  3 active torsions:
REMARK  status: ('A' for Active; 'I' for Inactive)
REMARK   11  A    between atoms: CA   and  CB  
REMARK   12  A    between atoms: CB   and  CG  
REMARK   13  A    between atoms: CG   and  SD  
ROOT
ATOM     33  CA  MET A  49      -9.418  15.600  76.823  1.00 61.58     0.177 C 
ENDROOT
BRANCH  33  34
ATOM     34  CB  MET A  49      -8.930  15.410  75.386  1.00 62.15     0.045 C 
BRANCH  34  35
ATOM     35  CG  MET A  49      -9.818  16.077  74.348  1.00 60.24     0.076 C 
BRANCH  35  36
ATOM     36  SD  MET A  49     -11.287  16.848  75.055  1.00 77.15    -0.173 SA
ATOM     37  CE  MET A  49     -12.564  16.169  73.998  1.00 60.34     0.089 C 
ENDBRANCH  35  36
ENDBRANCH  34  35
ENDBRANCH  33  34
END_RES MET A  49
BEGIN_RES GLU A 166
REMARK  3 active torsions:
REMARK  status: ('A' for Active; 'I' for Inactive)
REMARK   14  A    between atoms: CA   and  CB  
REMARK   15  A    between atoms: CB   and  CG  
REMARK   16  A    between atoms: CG   and  CD  
ROOT
ATOM     38  CA  GLU A 166     -14.746   9.219  66.167  1.00 28.52     0.177 C 
ENDROOT
BRANCH  38  39
ATOM     39  CB  GLU A 166     -13.578   9.064  65.189  1.00 29.90     0.045 C 
BRANCH  39  40
ATOM     40  CG  GLU A 166     -13.661   7.872  64.255  1.00 36.08     0.116 C 
BRANCH  40  41
ATOM     41  CD  GLU A 166     -12.392   7.698  63.442  1.00 45.17     0.172 C 
ATOM     42  OE2 GLU A 166     -12.219   8.431  62.445  1.00 40.54    -0.648 OA
ATOM     43  OE1 GLU A 166     -11.562   6.837  63.804  1.00 50.70    -0.648 OA
ENDBRANCH  40  41
ENDBRANCH  39  40
ENDBRANCH  38  39
END_RES GLU A 166
BEGIN_RES HIS A 163
REMARK  2 active torsions:
REMARK  status: ('A' for Active; 'I' for Inactive)
REMARK   17  A    between atoms: CA   and  CB  
REMARK   18  A    between atoms: CB   and  CG  
ROOT
ATOM     44  CA  HIS A 163     -19.055  16.637  64.100  1.00 27.27     0.182 C 
ENDROOT
BRANCH  44  45
ATOM     45  CB  HIS A 163     -18.129  16.377  62.914  1.00 26.00     0.093 C 
BRANCH  45  46
ATOM     46  CG  HIS A 163     -17.103  15.321  63.179  1.00 26.66     0.028 A 
ATOM     47  ND1 HIS A 163     -15.755  15.598  63.255  1.00 26.97    -0.354 N 
ATOM     48  CE1 HIS A 163     -15.091  14.480  63.491  1.00 30.44     0.180 A 
ATOM     49  HD1 HIS A 163     -15.336  16.521  63.146  1.00  0.00     0.166 HD
ATOM     50  NE2 HIS A 163     -15.960  13.488  63.565  1.00 30.00    -0.360 N 
ATOM     51  CD2 HIS A 163     -17.225  13.987  63.373  1.00 29.24     0.114 A 
ATOM     52  HE2 HIS A 163     -15.729  12.510  63.738  1.00  0.00     0.166 HD
ENDBRANCH  45  46
ENDBRANCH  44  45
END_RES HIS A 163
BEGIN_RES HIS A 172
REMARK  2 active torsions:
REMARK  status: ('A' for Active; 'I' for Inactive)
REMARK   19  A    between atoms: CA   and  CB  
REMARK   20  A    between atoms: CB   and  CG  
ROOT
ATOM     53  CA  HIS A 172     -18.444   9.111  64.049  1.00 29.85     0.182 C 
ENDROOT
BRANCH  53  54
ATOM     54  CB  HIS A 172     -18.188  10.085  62.898  1.00 26.76     0.093 C 
BRANCH  54  55
ATOM     55  CG  HIS A 172     -16.890   9.847  62.191  1.00 28.76     0.028 A 
ATOM     56  CD2 HIS A 172     -15.626  10.217  62.501  1.00 29.36     0.114 A 
ATOM     57  NE2 HIS A 172     -14.806   9.727  61.514  1.00 33.77    -0.360 N 
ATOM     58  CE1 HIS A 172     -15.541   9.073  60.631  1.00 32.44     0.180 A 
ATOM     59  HE2 HIS A 172     -13.794   9.848  61.470  1.00  0.00     0.166 HD
ATOM     60  ND1 HIS A 172     -16.803   9.127  61.018  1.00 29.32    -0.354 N 
ATOM     61  HD1 HIS A 172     -17.590   8.703  60.527  1.00  0.00     0.166 HD
ENDBRANCH  54  55
ENDBRANCH  53  54
END_RES HIS A 172
BEGIN_RES THR A  26
REMARK  2 active torsions:
REMARK  status: ('A' for Active; 'I' for Inactive)
REMARK   21  A    between atoms: CA   and  CB  
REMARK   22  A    between atoms: CB   and  OG1 
ROOT
ATOM     62  CA  THR A  26      -8.224  25.031  66.060  1.00 43.98     0.205 C 
ENDROOT
BRANCH  62  63
ATOM     63  CB  THR A  26      -7.184  25.490  65.034  1.00 45.90     0.146 C 
ATOM     64  CG2 THR A  26      -7.853  26.030  63.768  1.00 47.20     0.042 C 
BRANCH  63  65
ATOM     65  OG1 THR A  26      -6.350  26.502  65.608  1.00 50.51    -0.393 OA
ATOM     66  HG1 THR A  26      -6.875  27.092  66.136  1.00  0.00     0.210 HD
ENDBRANCH  63  65
ENDBRANCH  62  63
END_RES THR A  26
ENDMDL
MODEL 4
REMARK VINA RESULT:      -7.5      2.574      6.354
REMARK  14 active torsions:
REMARK  status: ('A' for Active; 'I' for Inactive)
REMARK    1  A    between atoms: C2_2  and  O1_3 
REMARK    2  A    between atoms: O1_3  and  C3_4 
REMARK    3  A    between atoms: C3_4  and  C4_6 
REMARK    4  A    between atoms: C5_7  and  C6_8 
REMARK    5  A    between atoms: C6_8  and  C7_9 
REMARK    6  A    between atoms: C6_8  and  N2_16 
REMARK    7  A    between atoms: C7_9  and  C8_10 
REMARK       I    between atoms: N2_16  and  C12_17 
REMARK    8  A    between atoms: C12_17  and  C13_19 
REMARK    9  A    between atoms: C13_19  and  C14_20 
REMARK   10  A    between atoms: C13_19  and  N3_28 
REMARK   11  A    between atoms: C14_20  and  C15_21 
REMARK       I    between atoms: N3_28  and  C21_29 
REMARK   12  A    between atoms: C21_29  and  C22_31 
REMARK   13  A    between atoms: C22_31  and  N4_32 
REMARK       I    between atoms: N4_32  and  C23_33 
REMARK   14  A    between atoms: C23_33  and  C24_35 
ROOT
HETATM    1  C1  UNL     1     -14.612  14.930  71.700  1.00  0.00     0.034 C 
HETATM    2  C2  UNL     1     -13.302  14.979  70.917  1.00  0.00     0.174 C 
ENDROOT
BRANCH   2   3
HETATM    3  O1  UNL     1     -12.704  16.204  71.216  1.00  0.00    -0.319 OA
BRANCH   3   4
HETATM    4  C3  UNL     1     -11.332  16.462  71.104  1.00  0.00     0.282 C 
HETATM    5  O2  UNL     1     -10.945  17.606  71.414  1.00  0.00    -0.260 OA
BRANCH   4   6
HETATM    6  C4  UNL     1     -10.436  15.387  70.634  1.00  0.00     0.080 C 
HETATM    7  C5  UNL     1      -9.139  15.490  70.701  1.00  0.00     0.004 C 
BRANCH   7   8
HETATM    8  C6  UNL     1      -8.149  14.488  70.265  1.00  0.00     0.108 C 
BRANCH   8   9
HETATM    9  C7  UNL     1      -6.925  15.114  69.683  1.00  0.00     0.043 C 
BRANCH   9  10
HETATM   10  C8  UNL     1      -6.582  16.472  70.158  1.00  0.00     0.081 C 
HETATM   11  C9  UNL     1      -6.272  17.370  68.968  1.00  0.00     0.034 C 
HETATM   12  C10 UNL     1      -4.875  17.839  69.240  1.00  0.00     0.123 C 
HETATM   13  N1  UNL     1      -4.663  17.707  70.669  1.00  0.00    -0.361 N 
HETATM   14  C11 UNL     1      -5.473  16.614  71.084  1.00  0.00     0.221 C 
HETATM   15  H16 UNL     1      -4.031  18.310  71.276  1.00  0.00     0.162 HD
HETATM   16  O3  UNL     1      -5.216  15.929  72.095  1.00  0.00    -0.273 OA
ENDBRANCH   9  10
ENDBRANCH   8   9
BRANCH   8  17
HETATM   17  N2  UNL     1      -8.732  13.521  69.319  1.00  0.00    -0.351 N 
HETATM   18  C12 UNL     1      -8.610  12.137  69.503  1.00  0.00     0.241 C 
HETATM   19  O4  UNL     1      -7.958  11.747  70.557  1.00  0.00    -0.271 OA
HETATM   20  H17 UNL     1      -9.213  13.911  68.498  1.00  0.00     0.163 HD
BRANCH  18  21
HETATM   21  C13 UNL     1      -9.144  11.115  68.610  1.00  0.00     0.180 C 
BRANCH  21  22
HETATM   22  C14 UNL     1      -8.311   9.953  68.298  1.00  0.00     0.073 C 
BRANCH  22  23
HETATM   23  C15 UNL     1      -8.482   9.263  67.020  1.00  0.00    -0.056 A 
HETATM   24  C16 UNL     1      -7.575   9.492  65.976  1.00  0.00     0.010 A 
HETATM   25  C17 UNL     1      -7.646   8.836  64.769  1.00  0.00     0.043 A 
HETATM   26  C18 UNL     1      -8.635   7.905  64.534  1.00  0.00     0.116 A 
HETATM   27  F1  UNL     1      -8.721   7.245  63.337  1.00  0.00    -0.206 F 
HETATM   28  C19 UNL     1      -9.546   7.650  65.536  1.00  0.00     0.043 A 
HETATM   29  C20 UNL     1      -9.466   8.314  66.740  1.00  0.00     0.010 A 
ENDBRANCH  22  23
ENDBRANCH  21  22
BRANCH  21  30
HETATM   30  N3  UNL     1      -9.660  11.794  67.427  1.00  0.00    -0.346 N 
HETATM   31  C21 UNL     1     -11.004  11.839  67.005  1.00  0.00     0.239 C 
HETATM   32  O5  UNL     1     -11.765  11.187  67.805  1.00  0.00    -0.271 OA
HETATM   33  H25 UNL     1      -9.013  12.307  66.791  1.00  0.00     0.163 HD
BRANCH  31  34
HETATM   34  C22 UNL     1     -11.484  12.509  65.833  1.00  0.00     0.154 A 
HETATM   35  C28 UNL     1     -11.327  11.889  64.408  1.00  0.00    -0.022 A 
HETATM   36  C29 UNL     1     -12.023  12.875  63.320  1.00  0.00     0.017 C 
HETATM   37  C30 UNL     1      -9.841  11.963  63.802  1.00  0.00     0.017 C 
HETATM   38  C31 UNL     1     -11.358  11.557  64.604  1.00  0.00     0.053 A 
BRANCH  34  39
HETATM   39  N4  UNL     1     -10.829  13.813  65.835  1.00  0.00    -0.344 N 
HETATM   40  C23 UNL     1     -11.047  14.873  66.694  1.00  0.00     0.273 C 
HETATM   41  O6  UNL     1     -11.921  14.720  67.598  1.00  0.00    -0.266 OA
HETATM   42  H27 UNL     1     -10.131  13.894  65.094  1.00  0.00     0.163 HD
BRANCH  40  43
HETATM   43  C24 UNL     1     -10.357  16.133  66.643  1.00  0.00     0.154 A 
HETATM   44  C25 UNL     1     -10.280  17.141  67.596  1.00  0.00     0.074 A 
HETATM   45  C26 UNL     1      -9.498  18.162  67.080  1.00  0.00     0.077 A 
HETATM   46  C27 UNL     1      -9.148  19.446  67.758  1.00  0.00     0.079 C 
HETATM   47  O7  UNL     1      -9.150  17.757  65.899  1.00  0.00    -0.218 OA
HETATM   48  N5  UNL     1      -9.628  16.588  65.613  1.00  0.00    -0.123 NA
ENDBRANCH  40  43
ENDBRANCH  34  39
ENDBRANCH  31  34
ENDBRANCH  21  30
ENDBRANCH  18  21
ENDBRANCH   8  17
ENDBRANCH   7   8
ENDBRANCH   4   6
ENDBRANCH   3   4
ENDBRANCH   2   3
TORSDOF 14
BEGIN_RES HIS A  41
REMARK  2 active torsions:
REMARK  status: ('A' for Active; 'I' for Inactive)
REMARK    1  A    between atoms: CA   and  CB  
REMARK    2  A    between atoms: CB   and  CG  
ROOT
ATOM      1  CA  HIS A  41     -13.820  21.037  73.265  1.00 38.89     0.182 C 
ENDROOT
BRANCH   1   2
ATOM      2  CB  HIS A  41     -13.705  19.545  72.937  1.00 42.38     0.093 C 
BRANCH   2   3
ATOM      3  CG  HIS A  41     -14.101  19.197  71.536  1.00 37.90     0.028 A 
ATOM      4  CD2 HIS A  41     -13.561  19.543  70.344  1.00 37.33     0.114 A 
ATOM      5  NE2 HIS A  41     -14.317  18.940  69.368  1.00 41.88    -0.360 N 
ATOM      6  CE1 HIS A  41     -15.283  18.244  69.942  1.00 41.55     0.180 A 
ATOM      7  HE2 HIS A  41     -14.158  19.018  68.363  1.00  0.00     0.166 HD
ATOM      8  ND1 HIS A  41     -15.173  18.380  71.250  1.00 36.57    -0.354 N 
ATOM      9  HD1 HIS A  41     -15.787  17.948  71.941  1.00  0.00     0.166 HD
ENDBRANCH   2   3
ENDBRANCH   1   2
END_RES HIS A  41
BEGIN_RES CYS A 145
REMARK  1 active torsions:
REMARK  status: ('A' for Active; 'I' for Inactive)
REMARK    3  A    between atoms: CA   and  CB  
ROOT
ATOM     10  CA  CYS A 145     -14.607  19.162  64.101  1.00 29.71     0.186 C 
ENDROOT
BRANCH  10  11
ATOM     11  CB  CYS A 145     -14.100  19.110  65.541  1.00 31.75     0.120 C 
ATOM     12  SG  CYS A 145     -13.840  17.436  66.156  1.00 39.68    -0.095 SA
ENDBRANCH  10  11
END_RES CYS A 145
BEGIN_RES GLN A 189
REMARK  3 active torsions:
REMARK  status: ('A' for Active; 'I' for Inactive)
REMARK    4  A    between atoms: CA   and  CB  
REMARK    5  A    between atoms: CB   and  CG  
REMARK    6  A    between atoms: CG   and  CD  
REMARK       I    between atoms: CD   and  NE2 
ROOT
ATOM     13  CA  GLN A 189     -11.641  10.633  75.105  1.00 38.41     0.177 C 
ENDROOT
BRANCH  13  14
ATOM     14  CB  GLN A 189     -10.259  11.109  74.679  1.00 37.59     0.044 C 
BRANCH  14  15
ATOM     15  CG  GLN A 189     -10.233  11.733  73.293  1.00 45.60     0.105 C 
BRANCH  15  16
ATOM     16  CD  GLN A 189     -10.850  10.840  72.236  1.00 47.27     0.215 C 
ATOM     17  NE2 GLN A 189     -10.151   9.765  71.887  1.00 44.45    -0.370 N 
ATOM     18 2HE2 GLN A 189      -9.245   9.540  72.298  1.00  0.00     0.159 HD
ATOM     19 1HE2 GLN A 189     -10.566   9.164  71.175  1.00  0.00     0.159 HD
ATOM     20  OE1 GLN A 189     -11.943  11.112  71.740  1.00 41.09    -0.274 OA
ENDBRANCH  15  16
ENDBRANCH  14  15
ENDBRANCH  13  14
END_RES GLN A 189
BEGIN_RES ASN A 142
REMARK  2 active torsions:
REMARK  status: ('A' for Active; 'I' for Inactive)
REMARK    7  A    between atoms: CA   and  CB  
REMARK    8  A    between atoms: CB   and  CG  
REMARK       I    between atoms: CG   and  ND2 
ROOT
ATOM     21  CA  ASN A 142      -7.978  15.712  62.559  1.00 43.18     0.185 C 
ENDROOT
BRANCH  21  22
ATOM     22  CB  ASN A 142      -6.512  15.609  62.983  1.00 38.76     0.137 C 
BRANCH  22  23
ATOM     23  CG  ASN A 142      -6.346  15.069  64.391  1.00 50.71     0.217 C 
ATOM     24  ND2 ASN A 142      -6.779  15.845  65.377  1.00 55.08    -0.370 N 
ATOM     25 2HD2 ASN A 142      -7.202  16.759  65.211  1.00  0.00     0.159 HD
ATOM     26 1HD2 ASN A 142      -6.667  15.482  66.324  1.00  0.00     0.159 HD
ATOM     27  OD1 ASN A 142      -5.836  13.967  64.590  1.00 51.97    -0.274 OA
ENDBRANCH  22  23
ENDBRANCH  21  22
END_RES ASN A 142
BEGIN_RES LEU A  27
REMARK  2 active torsions:
REMARK  status: ('A' for Active; 'I' for Inactive)
REMARK    9  A    between atoms: CA   and  CB  
REMARK   10  A    between atoms: CB   and  CG  
ROOT
ATOM     28  CA  LEU A  27     -11.471  23.771  64.549  1.00 37.04     0.177 C 
ENDROOT
BRANCH  28  29
ATOM     29  CB  LEU A  27     -12.225  22.902  65.570  1.00 37.70     0.038 C 
BRANCH  29  30
ATOM     30  CG  LEU A  27     -12.556  23.415  66.972  1.00 36.32    -0.020 C 
ATOM     31  CD1 LEU A  27     -13.731  24.380  66.951  1.00 32.79     0.009 C 
ATOM     32  CD2 LEU A  27     -12.855  22.234  67.882  1.00 31.17     0.009 C 
ENDBRANCH  29  30
ENDBRANCH  28  29
END_RES LEU A  27
BEGIN_RES MET A  49
REMARK  3 active torsions:
REMARK  status: ('A' for Active; 'I' for Inactive)
REMARK   11  A    between atoms: CA   and  CB  
REMARK   12  A    between atoms: CB   and  CG  
REMARK   13  A    between atoms: CG   and  SD  
ROOT
ATOM     33  CA  MET A  49      -9.418  15.600  76.823  1.00 61.58     0.177 C 
ENDROOT
BRANCH  33  34
ATOM     34  CB  MET A  49      -8.930  15.410  75.386  1.00 62.15     0.045 C 
BRANCH  34  35
ATOM     35  CG  MET A  49      -9.703  16.232  74.367  1.00 60.24     0.076 C 
BRANCH  35  36
ATOM     36  SD  MET A  49     -11.199  16.980  75.040  1.00 77.15    -0.173 SA
ATOM     37  CE  MET A  49     -12.418  15.741  74.605  1.00 60.34     0.089 C 
ENDBRANCH  35  36
ENDBRANCH  34  35
ENDBRANCH  33  34
END_RES MET A  49
BEGIN_RES GLU A 166
REMARK  3 active torsions:
REMARK  status: ('A' for Active; 'I' for Inactive)
REMARK   14  A    between atoms: CA   and  CB  
REMARK   15  A    between atoms: CB   and  CG  
REMARK   16  A    between atoms: CG   and  CD  
ROOT
ATOM     38  CA  GLU A 166     -14.746   9.219  66.167  1.00 28.52     0.177 C 
ENDROOT
BRANCH  38  39
ATOM     39  CB  GLU A 166     -13.578   9.064  65.189  1.00 29.90     0.045 C 
BRANCH  39  40
ATOM     40  CG  GLU A 166     -13.667   7.878  64.247  1.00 36.08     0.116 C 
BRANCH  40  41
ATOM     41  CD  GLU A 166     -12.462   7.791  63.329  1.00 45.17     0.172 C 
ATOM     42  OE2 GLU A 166     -11.892   6.687  63.200  1.00 40.54    -0.648 OA
ATOM     43  OE1 GLU A 166     -12.091   8.822  62.728  1.00 50.70    -0.648 OA
ENDBRANCH  40  41
ENDBRANCH  39  40
ENDBRANCH  38  39
END_RES GLU A 166
BEGIN_RES HIS A 163
REMARK  2 active torsions:
REMARK  status: ('A' for Active; 'I' for Inactive)
REMARK   17  A    between atoms: CA   and  CB  
REMARK   18  A    between atoms: CB   and  CG  
ROOT
ATOM     44  CA  HIS A 163     -19.055  16.637  64.100  1.00 27.27     0.182 C 
ENDROOT
BRANCH  44  45
ATOM     45  CB  HIS A 163     -18.129  16.377  62.914  1.00 26.00     0.093 C 
BRANCH  45  46
ATOM     46  CG  HIS A 163     -17.096  15.329  63.183  1.00 26.66     0.028 A 
ATOM     47  ND1 HIS A 163     -15.753  15.620  63.289  1.00 26.97    -0.354 N 
ATOM     48  CE1 HIS A 163     -15.080  14.507  63.521  1.00 30.44     0.180 A 
ATOM     49  HD1 HIS A 163     -15.343  16.550  63.203  1.00  0.00     0.166 HD
ATOM     50  NE2 HIS A 163     -15.939  13.504  63.564  1.00 30.00    -0.360 N 
ATOM     51  CD2 HIS A 163     -17.206  13.991  63.354  1.00 29.24     0.114 A 
ATOM     52  HE2 HIS A 163     -15.699  12.526  63.725  1.00  0.00     0.166 HD
ENDBRANCH  45  46
ENDBRANCH  44  45
END_RES HIS A 163
BEGIN_RES HIS A 172
REMARK  2 active torsions:
REMARK  status: ('A' for Active; 'I' for Inactive)
REMARK   19  A    between atoms: CA   and  CB  
REMARK   20  A    between atoms: CB   and  CG  
ROOT
ATOM     53  CA  HIS A 172     -18.444   9.111  64.049  1.00 29.85     0.182 C 
ENDROOT
BRANCH  53  54
ATOM     54  CB  HIS A 172     -18.188  10.085  62.898  1.00 26.76     0.093 C 
BRANCH  54  55
ATOM     55  CG  HIS A 172     -16.865   9.883  62.228  1.00 28.76     0.028 A 
ATOM     56  CD2 HIS A 172     -15.624  10.308  62.560  1.00 29.36     0.114 A 
ATOM     57  NE2 HIS A 172     -14.761   9.830  61.604  1.00 33.77    -0.360 N 
ATOM     58  CE1 HIS A 172     -15.449   9.132  60.717  1.00 32.44     0.180 A 
ATOM     59  HE2 HIS A 172     -13.754   9.989  61.581  1.00  0.00     0.166 HD
ATOM     60  ND1 HIS A 172     -16.721   9.144  61.072  1.00 29.32    -0.354 N 
ATOM     61  HD1 HIS A 172     -17.479   8.681  60.571  1.00  0.00     0.166 HD
ENDBRANCH  54  55
ENDBRANCH  53  54
END_RES HIS A 172
BEGIN_RES THR A  26
REMARK  2 active torsions:
REMARK  status: ('A' for Active; 'I' for Inactive)
REMARK   21  A    between atoms: CA   and  CB  
REMARK   22  A    between atoms: CB   and  OG1 
ROOT
ATOM     62  CA  THR A  26      -8.224  25.031  66.060  1.00 43.98     0.205 C 
ENDROOT
BRANCH  62  63
ATOM     63  CB  THR A  26      -7.184  25.490  65.034  1.00 45.90     0.146 C 
ATOM     64  CG2 THR A  26      -7.852  25.996  63.754  1.00 47.20     0.042 C 
BRANCH  63  65
ATOM     65  OG1 THR A  26      -6.372  26.527  65.596  1.00 50.51    -0.393 OA
ATOM     66  HG1 THR A  26      -6.711  26.775  66.449  1.00  0.00     0.210 HD
ENDBRANCH  63  65
ENDBRANCH  62  63
END_RES THR A  26
ENDMDL
MODEL 5
REMARK VINA RESULT:      -7.4      2.740      5.948
REMARK  14 active torsions:
REMARK  status: ('A' for Active; 'I' for Inactive)
REMARK    1  A    between atoms: C2_2  and  O1_3 
REMARK    2  A    between atoms: O1_3  and  C3_4 
REMARK    3  A    between atoms: C3_4  and  C4_6 
REMARK    4  A    between atoms: C5_7  and  C6_8 
REMARK    5  A    between atoms: C6_8  and  C7_9 
REMARK    6  A    between atoms: C6_8  and  N2_16 
REMARK    7  A    between atoms: C7_9  and  C8_10 
REMARK       I    between atoms: N2_16  and  C12_17 
REMARK    8  A    between atoms: C12_17  and  C13_19 
REMARK    9  A    between atoms: C13_19  and  C14_20 
REMARK   10  A    between atoms: C13_19  and  N3_28 
REMARK   11  A    between atoms: C14_20  and  C15_21 
REMARK       I    between atoms: N3_28  and  C21_29 
REMARK   12  A    between atoms: C21_29  and  C22_31 
REMARK   13  A    between atoms: C22_31  and  N4_32 
REMARK       I    between atoms: N4_32  and  C23_33 
REMARK   14  A    between atoms: C23_33  and  C24_35 
ROOT
HETATM    1  C1  UNL     1      -6.928   6.167  74.112  1.00  0.00     0.034 C 
HETATM    2  C2  UNL     1      -7.783   5.948  75.358  1.00  0.00     0.174 C 
ENDROOT
BRANCH   2   3
HETATM    3  O1  UNL     1      -8.986   6.619  75.138  1.00  0.00    -0.319 OA
BRANCH   3   4
HETATM    4  C3  UNL     1     -10.080   6.077  74.452  1.00  0.00     0.282 C 
HETATM    5  O2  UNL     1     -10.590   5.042  74.925  1.00  0.00    -0.260 OA
BRANCH   4   6
HETATM    6  C4  UNL     1     -10.560   6.746  73.227  1.00  0.00     0.080 C 
HETATM    7  C5  UNL     1     -11.196   6.100  72.290  1.00  0.00     0.004 C 
BRANCH   7   8
HETATM    8  C6  UNL     1     -11.720   6.658  71.030  1.00  0.00     0.108 C 
BRANCH   8   9
HETATM    9  C7  UNL     1     -11.172   5.963  69.828  1.00  0.00     0.043 C 
BRANCH   9  10
HETATM   10  C8  UNL     1     -10.671   6.822  68.732  1.00  0.00     0.081 C 
HETATM   11  C9  UNL     1     -10.950   6.158  67.391  1.00  0.00     0.034 C 
HETATM   12  C10 UNL     1      -9.589   6.031  66.776  1.00  0.00     0.123 C 
HETATM   13  N1  UNL     1      -8.749   7.025  67.418  1.00  0.00    -0.361 N 
HETATM   14  C11 UNL     1      -9.266   7.182  68.733  1.00  0.00     0.221 C 
HETATM   15  H16 UNL     1      -7.919   7.531  66.984  1.00  0.00     0.162 HD
HETATM   16  O3  UNL     1      -8.566   7.574  69.691  1.00  0.00    -0.273 OA
ENDBRANCH   9  10
ENDBRANCH   8   9
BRANCH   8  17
HETATM   17  N2  UNL     1     -11.484   8.109  70.937  1.00  0.00    -0.351 N 
HETATM   18  C12 UNL     1     -12.505   9.043  71.162  1.00  0.00     0.241 C 
HETATM   19  O4  UNL     1     -13.673   8.563  71.462  1.00  0.00    -0.271 OA
HETATM   20  H17 UNL     1     -10.536   8.408  70.673  1.00  0.00     0.163 HD
BRANCH  18  21
HETATM   21  C13 UNL     1     -12.360  10.492  71.077  1.00  0.00     0.180 C 
BRANCH  21  22
HETATM   22  C14 UNL     1     -13.267  11.335  71.857  1.00  0.00     0.073 C 
BRANCH  22  23
HETATM   23  C15 UNL     1     -12.970  12.757  72.020  1.00  0.00    -0.056 A 
HETATM   24  C16 UNL     1     -11.644  13.205  71.963  1.00  0.00     0.010 A 
HETATM   25  C17 UNL     1     -11.301  14.534  72.054  1.00  0.00     0.043 A 
HETATM   26  C18 UNL     1     -12.272  15.500  72.206  1.00  0.00     0.116 A 
HETATM   27  F1  UNL     1     -11.947  16.828  72.300  1.00  0.00    -0.206 F 
HETATM   28  C19 UNL     1     -13.589  15.101  72.265  1.00  0.00     0.043 A 
HETATM   29  C20 UNL     1     -13.921  13.768  72.174  1.00  0.00     0.010 A 
ENDBRANCH  22  23
ENDBRANCH  21  22
BRANCH  21  30
HETATM   30  N3  UNL     1     -12.310  10.844  69.662  1.00  0.00    -0.346 N 
HETATM   31  C21 UNL     1     -11.151  10.994  68.875  1.00  0.00     0.239 C 
HETATM   32  O5  UNL     1     -10.091  10.780  69.562  1.00  0.00    -0.271 OA
HETATM   33  H25 UNL     1     -13.191  11.022  69.134  1.00  0.00     0.163 HD
BRANCH  31  34
HETATM   34  C22 UNL     1     -11.132  11.348  67.486  1.00  0.00     0.154 A 
HETATM   35  C28 UNL     1     -10.340  10.507  66.434  1.00  0.00    -0.022 A 
HETATM   36  C29 UNL     1     -10.573  11.148  64.960  1.00  0.00     0.017 C 
HETATM   37  C30 UNL     1      -8.747  10.708  66.474  1.00  0.00     0.017 C 
HETATM   38  C31 UNL     1     -10.429  10.218  66.674  1.00  0.00     0.053 A 
BRANCH  34  39
HETATM   39  N4  UNL     1     -10.633  12.718  67.441  1.00  0.00    -0.344 N 
HETATM   40  C23 UNL     1     -11.213  13.853  67.974  1.00  0.00     0.273 C 
HETATM   41  O6  UNL     1     -12.318  13.713  68.578  1.00  0.00    -0.266 OA
HETATM   42  H27 UNL     1      -9.740  12.786  66.949  1.00  0.00     0.163 HD
BRANCH  40  43
HETATM   43  C24 UNL     1     -10.660  15.178  67.898  1.00  0.00     0.154 A 
HETATM   44  C25 UNL     1     -10.791  16.245  68.778  1.00  0.00     0.074 A 
HETATM   45  C26 UNL     1     -10.072  17.314  68.267  1.00  0.00     0.077 A 
HETATM   46  C27 UNL     1      -9.933  18.669  68.880  1.00  0.00     0.079 C 
HETATM   47  O7  UNL     1      -9.562  16.879  67.158  1.00  0.00    -0.218 OA
HETATM   48  N5  UNL     1      -9.879  15.648  66.913  1.00  0.00    -0.123 NA
ENDBRANCH  40  43
ENDBRANCH  34  39
ENDBRANCH  31  34
ENDBRANCH  21  30
ENDBRANCH  18  21
ENDBRANCH   8  17
ENDBRANCH   7   8
ENDBRANCH   4   6
ENDBRANCH   3   4
ENDBRANCH   2   3
TORSDOF 14
BEGIN_RES HIS A  41
REMARK  2 active torsions:
REMARK  status: ('A' for Active; 'I' for Inactive)
REMARK    1  A    between atoms: CA   and  CB  
REMARK    2  A    between atoms: CB   and  CG  
ROOT
ATOM      1  CA  HIS A  41     -13.820  21.037  73.265  1.00 38.89     0.182 C 
ENDROOT
BRANCH   1   2
ATOM      2  CB  HIS A  41     -13.705  19.545  72.937  1.00 42.38     0.093 C 
BRANCH   2   3
ATOM      3  CG  HIS A  41     -14.055  19.204  71.523  1.00 37.90     0.028 A 
ATOM      4  CD2 HIS A  41     -13.435  19.493  70.354  1.00 37.33     0.114 A 
ATOM      5  NE2 HIS A  41     -14.183  18.929  69.349  1.00 41.88    -0.360 N 
ATOM      6  CE1 HIS A  41     -15.222  18.310  69.883  1.00 41.55     0.180 A 
ATOM      7  HE2 HIS A  41     -13.970  18.979  68.353  1.00  0.00     0.166 HD
ATOM      8  ND1 HIS A  41     -15.167  18.459  71.193  1.00 36.57    -0.354 N 
ATOM      9  HD1 HIS A  41     -15.842  18.081  71.858  1.00  0.00     0.166 HD
ENDBRANCH   2   3
ENDBRANCH   1   2
END_RES HIS A  41
BEGIN_RES CYS A 145
REMARK  1 active torsions:
REMARK  status: ('A' for Active; 'I' for Inactive)
REMARK    3  A    between atoms: CA   and  CB  
ROOT
ATOM     10  CA  CYS A 145     -14.607  19.162  64.101  1.00 29.71     0.186 C 
ENDROOT
BRANCH  10  11
ATOM     11  CB  CYS A 145     -14.100  19.110  65.541  1.00 31.75     0.120 C 
ATOM     12  SG  CYS A 145     -13.473  17.492  66.029  1.00 39.68    -0.095 SA
ENDBRANCH  10  11
END_RES CYS A 145
BEGIN_RES GLN A 189
REMARK  3 active torsions:
REMARK  status: ('A' for Active; 'I' for Inactive)
REMARK    4  A    between atoms: CA   and  CB  
REMARK    5  A    between atoms: CB   and  CG  
REMARK    6  A    between atoms: CG   and  CD  
REMARK       I    between atoms: CD   and  NE2 
ROOT
ATOM     13  CA  GLN A 189     -11.641  10.633  75.105  1.00 38.41     0.177 C 
ENDROOT
BRANCH  13  14
ATOM     14  CB  GLN A 189     -10.259  11.109  74.679  1.00 37.59     0.044 C 
BRANCH  14  15
ATOM     15  CG  GLN A 189      -9.734  10.412  73.434  1.00 45.60     0.105 C 
BRANCH  15  16
ATOM     16  CD  GLN A 189      -8.393   9.743  73.658  1.00 47.27     0.215 C 
ATOM     17  NE2 GLN A 189      -8.041   9.531  74.922  1.00 44.45    -0.370 N 
ATOM     18 2HE2 GLN A 189      -8.630   9.798  75.710  1.00  0.00     0.159 HD
ATOM     19 1HE2 GLN A 189      -7.138   9.081  75.073  1.00  0.00     0.159 HD
ATOM     20  OE1 GLN A 189      -7.682   9.420  72.706  1.00 41.09    -0.274 OA
ENDBRANCH  15  16
ENDBRANCH  14  15
ENDBRANCH  13  14
END_RES GLN A 189
BEGIN_RES ASN A 142
REMARK  2 active torsions:
REMARK  status: ('A' for Active; 'I' for Inactive)
REMARK    7  A    between atoms: CA   and  CB  
REMARK    8  A    between atoms: CB   and  CG  
REMARK       I    between atoms: CG   and  ND2 
ROOT
ATOM     21  CA  ASN A 142      -7.978  15.712  62.559  1.00 43.18     0.185 C 
ENDROOT
BRANCH  21  22
ATOM     22  CB  ASN A 142      -6.512  15.609  62.983  1.00 38.76     0.137 C 
BRANCH  22  23
ATOM     23  CG  ASN A 142      -6.349  15.301  64.459  1.00 50.71     0.217 C 
ATOM     24  ND2 ASN A 142      -7.341  15.681  65.256  1.00 55.08    -0.370 N 
ATOM     25 2HD2 ASN A 142      -8.174  16.157  64.907  1.00  0.00     0.159 HD
ATOM     26 1HD2 ASN A 142      -7.232  15.474  66.249  1.00  0.00     0.159 HD
ATOM     27  OD1 ASN A 142      -5.345  14.727  64.880  1.00 51.97    -0.274 OA
ENDBRANCH  22  23
ENDBRANCH  21  22
END_RES ASN A 142
BEGIN_RES LEU A  27
REMARK  2 active torsions:
REMARK  status: ('A' for Active; 'I' for Inactive)
REMARK    9  A    between atoms: CA   and  CB  
REMARK   10  A    between atoms: CB   and  CG  
ROOT
ATOM     28  CA  LEU A  27     -11.471  23.771  64.549  1.00 37.04     0.177 C 
ENDROOT
BRANCH  28  29
ATOM     29  CB  LEU A  27     -12.225  22.902  65.570  1.00 37.70     0.038 C 
BRANCH  29  30
ATOM     30  CG  LEU A  27     -12.387  23.334  67.027  1.00 36.32    -0.020 C 
ATOM     31  CD1 LEU A  27     -13.839  23.633  67.364  1.00 32.79     0.009 C 
ATOM     32  CD2 LEU A  27     -11.844  22.244  67.939  1.00 31.17     0.009 C 
ENDBRANCH  29  30
ENDBRANCH  28  29
END_RES LEU A  27
BEGIN_RES MET A  49
REMARK  3 active torsions:
REMARK  status: ('A' for Active; 'I' for Inactive)
REMARK   11  A    between atoms: CA   and  CB  
REMARK   12  A    between atoms: CB   and  CG  
REMARK   13  A    between atoms: CG   and  SD  
ROOT
ATOM     33  CA  MET A  49      -9.418  15.600  76.823  1.00 61.58     0.177 C 
ENDROOT
BRANCH  33  34
ATOM     34  CB  MET A  49      -8.930  15.410  75.386  1.00 62.15     0.045 C 
BRANCH  34  35
ATOM     35  CG  MET A  49      -9.355  16.527  74.446  1.00 60.24     0.076 C 
BRANCH  35  36
ATOM     36  SD  MET A  49      -8.227  16.758  73.058  1.00 77.15    -0.173 SA
ATOM     37  CE  MET A  49      -6.965  15.547  73.445  1.00 60.34     0.089 C 
ENDBRANCH  35  36
ENDBRANCH  34  35
ENDBRANCH  33  34
END_RES MET A  49
BEGIN_RES GLU A 166
REMARK  3 active torsions:
REMARK  status: ('A' for Active; 'I' for Inactive)
REMARK   14  A    between atoms: CA   and  CB  
REMARK   15  A    between atoms: CB   and  CG  
REMARK   16  A    between atoms: CG   and  CD  
ROOT
ATOM     38  CA  GLU A 166     -14.746   9.219  66.167  1.00 28.52     0.177 C 
ENDROOT
BRANCH  38  39
ATOM     39  CB  GLU A 166     -13.578   9.064  65.189  1.00 29.90     0.045 C 
BRANCH  39  40
ATOM     40  CG  GLU A 166     -13.580   7.790  64.365  1.00 36.08     0.116 C 
BRANCH  40  41
ATOM     41  CD  GLU A 166     -12.397   7.726  63.417  1.00 45.17     0.172 C 
ATOM     42  OE2 GLU A 166     -12.621   7.672  62.189  1.00 40.54    -0.648 OA
ATOM     43  OE1 GLU A 166     -11.243   7.740  63.897  1.00 50.70    -0.648 OA
ENDBRANCH  40  41
ENDBRANCH  39  40
ENDBRANCH  38  39
END_RES GLU A 166
BEGIN_RES HIS A 163
REMARK  2 active torsions:
REMARK  status: ('A' for Active; 'I' for Inactive)
REMARK   17  A    between atoms: CA   and  CB  
REMARK   18  A    between atoms: CB   and  CG  
ROOT
ATOM     44  CA  HIS A 163     -19.055  16.637  64.100  1.00 27.27     0.182 C 
ENDROOT
BRANCH  44  45
ATOM     45  CB  HIS A 163     -18.129  16.377  62.914  1.00 26.00     0.093 C 
BRANCH  45  46
ATOM     46  CG  HIS A 163     -17.106  15.318  63.178  1.00 26.66     0.028 A 
ATOM     47  ND1 HIS A 163     -15.755  15.586  63.224  1.00 26.97    -0.354 N 
ATOM     48  CE1 HIS A 163     -15.094  14.468  63.466  1.00 30.44     0.180 A 
ATOM     49  HD1 HIS A 163     -15.331  16.504  63.092  1.00  0.00     0.166 HD
ATOM     50  NE2 HIS A 163     -15.969  13.483  63.573  1.00 30.00    -0.360 N 
ATOM     51  CD2 HIS A 163     -17.234  13.988  63.396  1.00 29.24     0.114 A 
ATOM     52  HE2 HIS A 163     -15.741  12.506  63.757  1.00  0.00     0.166 HD
ENDBRANCH  45  46
ENDBRANCH  44  45
END_RES HIS A 163
BEGIN_RES HIS A 172
REMARK  2 active torsions:
REMARK  status: ('A' for Active; 'I' for Inactive)
REMARK   19  A    between atoms: CA   and  CB  
REMARK   20  A    between atoms: CB   and  CG  
ROOT
ATOM     53  CA  HIS A 172     -18.444   9.111  64.049  1.00 29.85     0.182 C 
ENDROOT
BRANCH  53  54
ATOM     54  CB  HIS A 172     -18.188  10.085  62.898  1.00 26.76     0.093 C 
BRANCH  54  55
ATOM     55  CG  HIS A 172     -16.876   9.867  62.212  1.00 28.76     0.028 A 
ATOM     56  CD2 HIS A 172     -15.614  10.197  62.576  1.00 29.36     0.114 A 
ATOM     57  NE2 HIS A 172     -14.776   9.753  61.583  1.00 33.77    -0.360 N 
ATOM     58  CE1 HIS A 172     -15.497   9.165  60.644  1.00 32.44     0.180 A 
ATOM     59  HE2 HIS A 172     -13.762   9.859  61.572  1.00  0.00     0.166 HD
ATOM     60  ND1 HIS A 172     -16.768   9.217  61.001  1.00 29.32    -0.354 N 
ATOM     61  HD1 HIS A 172     -17.548   8.837  60.464  1.00  0.00     0.166 HD
ENDBRANCH  54  55
ENDBRANCH  53  54
END_RES HIS A 172
BEGIN_RES THR A  26
REMARK  2 active torsions:
REMARK  status: ('A' for Active; 'I' for Inactive)
REMARK   21  A    between atoms: CA   and  CB  
REMARK   22  A    between atoms: CB   and  OG1 
ROOT
ATOM     62  CA  THR A  26      -8.224  25.031  66.060  1.00 43.98     0.205 C 
ENDROOT
BRANCH  62  63
ATOM     63  CB  THR A  26      -7.184  25.490  65.034  1.00 45.90     0.146 C 
ATOM     64  CG2 THR A  26      -7.853  26.090  63.796  1.00 47.20     0.042 C 
BRANCH  63  65
ATOM     65  OG1 THR A  26      -6.311  26.457  65.627  1.00 50.51    -0.393 OA
ATOM     66  HG1 THR A  26      -6.759  27.292  65.703  1.00  0.00     0.210 HD
ENDBRANCH  63  65
ENDBRANCH  62  63
END_RES THR A  26
ENDMDL
MODEL 6
REMARK VINA RESULT:      -7.4      2.347      5.816
REMARK  14 active torsions:
REMARK  status: ('A' for Active; 'I' for Inactive)
REMARK    1  A    between atoms: C2_2  and  O1_3 
REMARK    2  A    between atoms: O1_3  and  C3_4 
REMARK    3  A    between atoms: C3_4  and  C4_6 
REMARK    4  A    between atoms: C5_7  and  C6_8 
REMARK    5  A    between atoms: C6_8  and  C7_9 
REMARK    6  A    between atoms: C6_8  and  N2_16 
REMARK    7  A    between atoms: C7_9  and  C8_10 
REMARK       I    between atoms: N2_16  and  C12_17 
REMARK    8  A    between atoms: C12_17  and  C13_19 
REMARK    9  A    between atoms: C13_19  and  C14_20 
REMARK   10  A    between atoms: C13_19  and  N3_28 
REMARK   11  A    between atoms: C14_20  and  C15_21 
REMARK       I    between atoms: N3_28  and  C21_29 
REMARK   12  A    between atoms: C21_29  and  C22_31 
REMARK   13  A    between atoms: C22_31  and  N4_32 
REMARK       I    between atoms: N4_32  and  C23_33 
REMARK   14  A    between atoms: C23_33  and  C24_35 
ROOT
HETATM    1  C1  UNL     1      -3.165  20.316  68.979  1.00  0.00     0.034 C 
HETATM    2  C2  UNL     1      -2.635  19.597  70.218  1.00  0.00     0.174 C 
ENDROOT
BRANCH   2   3
HETATM    3  O1  UNL     1      -3.472  18.502  70.432  1.00  0.00    -0.319 OA
BRANCH   3   4
HETATM    4  C3  UNL     1      -4.799  18.595  70.869  1.00  0.00     0.282 C 
HETATM    5  O2  UNL     1      -4.990  19.082  72.001  1.00  0.00    -0.260 OA
BRANCH   4   6
HETATM    6  C4  UNL     1      -5.880  18.120  69.983  1.00  0.00     0.080 C 
HETATM    7  C5  UNL     1      -7.051  18.690  69.954  1.00  0.00     0.004 C 
BRANCH   7   8
HETATM    8  C6  UNL     1      -8.202  18.307  69.116  1.00  0.00     0.108 C 
BRANCH   8   9
HETATM    9  C7  UNL     1      -9.396  19.170  69.359  1.00  0.00     0.043 C 
BRANCH   9  10
HETATM   10  C8  UNL     1      -9.903  19.944  68.205  1.00  0.00     0.081 C 
HETATM   11  C9  UNL     1     -10.907  19.106  67.424  1.00  0.00     0.034 C 
HETATM   12  C10 UNL     1     -10.317  19.049  66.047  1.00  0.00     0.123 C 
HETATM   13  N1  UNL     1      -9.430  20.191  65.929  1.00  0.00    -0.361 N 
HETATM   14  C11 UNL     1      -8.942  20.444  67.240  1.00  0.00     0.221 C 
HETATM   15  H16 UNL     1      -9.199  20.726  65.038  1.00  0.00     0.162 HD
HETATM   16  O3  UNL     1      -7.851  21.013  67.456  1.00  0.00    -0.273 OA
ENDBRANCH   9  10
ENDBRANCH   8   9
BRANCH   8  17
HETATM   17  N2  UNL     1      -8.551  16.886  69.288  1.00  0.00    -0.351 N 
HETATM   18  C12 UNL     1      -8.612  16.001  68.202  1.00  0.00     0.241 C 
HETATM   19  O4  UNL     1      -8.341  16.497  67.033  1.00  0.00    -0.271 OA
HETATM   20  H17 UNL     1      -8.774  16.576  70.242  1.00  0.00     0.163 HD
BRANCH  18  21
HETATM   21  C13 UNL     1      -8.963  14.587  68.283  1.00  0.00     0.180 C 
BRANCH  21  22
HETATM   22  C14 UNL     1      -8.602  13.711  67.168  1.00  0.00     0.073 C 
BRANCH  22  23
HETATM   23  C15 UNL     1      -9.624  13.312  66.202  1.00  0.00    -0.056 A 
HETATM   24  C16 UNL     1     -10.074  11.985  66.168  1.00  0.00     0.010 A 
HETATM   25  C17 UNL     1     -11.070  11.557  65.323  1.00  0.00     0.043 A 
HETATM   26  C18 UNL     1     -11.681  12.437  64.456  1.00  0.00     0.116 A 
HETATM   27  F1  UNL     1     -12.674  12.026  63.606  1.00  0.00    -0.206 F 
HETATM   28  C19 UNL     1     -11.268  13.751  64.459  1.00  0.00     0.043 A 
HETATM   29  C20 UNL     1     -10.269  14.169  65.309  1.00  0.00     0.010 A 
ENDBRANCH  22  23
ENDBRANCH  21  22
BRANCH  21  30
HETATM   30  N3  UNL     1     -10.371  14.505  68.654  1.00  0.00    -0.346 N 
HETATM   31  C21 UNL     1     -10.894  14.485  69.962  1.00  0.00     0.239 C 
HETATM   32  O5  UNL     1      -9.960  14.547  70.838  1.00  0.00    -0.271 OA
HETATM   33  H25 UNL     1     -11.106  14.446  67.918  1.00  0.00     0.163 HD
BRANCH  31  34
HETATM   34  C22 UNL     1     -12.284  14.398  70.299  1.00  0.00     0.154 A 
HETATM   35  C28 UNL     1     -12.981  15.465  71.202  1.00  0.00    -0.022 A 
HETATM   36  C29 UNL     1     -14.557  15.097  71.339  1.00  0.00     0.017 C 
HETATM   37  C30 UNL     1     -12.628  15.355  72.766  1.00  0.00     0.017 C 
HETATM   38  C31 UNL     1     -12.720  15.699  71.039  1.00  0.00     0.053 A 
BRANCH  34  39
HETATM   39  N4  UNL     1     -12.450  13.092  70.929  1.00  0.00    -0.344 N 
HETATM   40  C23 UNL     1     -12.279  11.845  70.359  1.00  0.00     0.273 C 
HETATM   41  O6  UNL     1     -11.938  11.803  69.140  1.00  0.00    -0.266 OA
HETATM   42  H27 UNL     1     -12.721  13.170  71.911  1.00  0.00     0.163 HD
BRANCH  40  43
HETATM   43  C24 UNL     1     -12.453  10.593  71.043  1.00  0.00     0.154 A 
HETATM   44  C25 UNL     1     -11.738   9.408  70.922  1.00  0.00     0.074 A 
HETATM   45  C26 UNL     1     -12.289   8.481  71.792  1.00  0.00     0.077 A 
HETATM   46  C27 UNL     1     -11.839   7.071  71.994  1.00  0.00     0.079 C 
HETATM   47  O7  UNL     1     -13.263   9.105  72.377  1.00  0.00    -0.218 OA
HETATM   48  N5  UNL     1     -13.388  10.327  71.970  1.00  0.00    -0.123 NA
ENDBRANCH  40  43
ENDBRANCH  34  39
ENDBRANCH  31  34
ENDBRANCH  21  30
ENDBRANCH  18  21
ENDBRANCH   8  17
ENDBRANCH   7   8
ENDBRANCH   4   6
ENDBRANCH   3   4
ENDBRANCH   2   3
TORSDOF 14
BEGIN_RES HIS A  41
REMARK  2 active torsions:
REMARK  status: ('A' for Active; 'I' for Inactive)
REMARK    1  A    between atoms: CA   and  CB  
REMARK    2  A    between atoms: CB   and  CG  
ROOT
ATOM      1  CA  HIS A  41     -13.820  21.037  73.265  1.00 38.89     0.182 C 
ENDROOT
BRANCH   1   2
ATOM      2  CB  HIS A  41     -13.705  19.545  72.937  1.00 42.38     0.093 C 
BRANCH   2   3
ATOM      3  CG  HIS A  41     -14.098  19.198  71.536  1.00 37.90     0.028 A 
ATOM      4  CD2 HIS A  41     -15.225  18.635  71.037  1.00 37.33     0.114 A 
ATOM      5  NE2 HIS A  41     -15.064  18.547  69.676  1.00 41.88    -0.360 N 
ATOM      6  CE1 HIS A  41     -13.883  19.042  69.350  1.00 41.55     0.180 A 
ATOM      7  HE2 HIS A  41     -15.746  18.160  69.023  1.00  0.00     0.166 HD
ATOM      8  ND1 HIS A  41     -13.281  19.445  70.454  1.00 36.57    -0.354 N 
ATOM      9  HD1 HIS A  41     -12.356  19.872  70.498  1.00  0.00     0.166 HD
ENDBRANCH   2   3
ENDBRANCH   1   2
END_RES HIS A  41
BEGIN_RES CYS A 145
REMARK  1 active torsions:
REMARK  status: ('A' for Active; 'I' for Inactive)
REMARK    3  A    between atoms: CA   and  CB  
ROOT
ATOM     10  CA  CYS A 145     -14.607  19.162  64.101  1.00 29.71     0.186 C 
ENDROOT
BRANCH  10  11
ATOM     11  CB  CYS A 145     -14.100  19.110  65.541  1.00 31.75     0.120 C 
ATOM     12  SG  CYS A 145     -13.826  17.437  66.151  1.00 39.68    -0.095 SA
ENDBRANCH  10  11
END_RES CYS A 145
BEGIN_RES GLN A 189
REMARK  3 active torsions:
REMARK  status: ('A' for Active; 'I' for Inactive)
REMARK    4  A    between atoms: CA   and  CB  
REMARK    5  A    between atoms: CB   and  CG  
REMARK    6  A    between atoms: CG   and  CD  
REMARK       I    between atoms: CD   and  NE2 
ROOT
ATOM     13  CA  GLN A 189     -11.641  10.633  75.105  1.00 38.41     0.177 C 
ENDROOT
BRANCH  13  14
ATOM     14  CB  GLN A 189     -10.259  11.109  74.679  1.00 37.59     0.044 C 
BRANCH  14  15
ATOM     15  CG  GLN A 189     -10.282  12.047  73.483  1.00 45.60     0.105 C 
BRANCH  15  16
ATOM     16  CD  GLN A 189      -8.934  12.160  72.801  1.00 47.27     0.215 C 
ATOM     17  NE2 GLN A 189      -8.880  11.783  71.528  1.00 44.45    -0.370 N 
ATOM     18 2HE2 GLN A 189      -9.694  11.433  71.023  1.00  0.00     0.159 HD
ATOM     19 1HE2 GLN A 189      -7.972  11.859  71.069  1.00  0.00     0.159 HD
ATOM     20  OE1 GLN A 189      -7.952  12.583  73.411  1.00 41.09    -0.274 OA
ENDBRANCH  15  16
ENDBRANCH  14  15
ENDBRANCH  13  14
END_RES GLN A 189
BEGIN_RES ASN A 142
REMARK  2 active torsions:
REMARK  status: ('A' for Active; 'I' for Inactive)
REMARK    7  A    between atoms: CA   and  CB  
REMARK    8  A    between atoms: CB   and  CG  
REMARK       I    between atoms: CG   and  ND2 
ROOT
ATOM     21  CA  ASN A 142      -7.978  15.712  62.559  1.00 43.18     0.185 C 
ENDROOT
BRANCH  21  22
ATOM     22  CB  ASN A 142      -6.512  15.609  62.983  1.00 38.76     0.137 C 
BRANCH  22  23
ATOM     23  CG  ASN A 142      -6.335  14.904  64.315  1.00 50.71     0.217 C 
ATOM     24  ND2 ASN A 142      -6.046  15.674  65.357  1.00 55.08    -0.370 N 
ATOM     25 2HD2 ASN A 142      -5.944  16.687  65.281  1.00  0.00     0.159 HD
ATOM     26 1HD2 ASN A 142      -5.927  15.200  66.253  1.00  0.00     0.159 HD
ATOM     27  OD1 ASN A 142      -6.459  13.683  64.407  1.00 51.97    -0.274 OA
ENDBRANCH  22  23
ENDBRANCH  21  22
END_RES ASN A 142
BEGIN_RES LEU A  27
REMARK  2 active torsions:
REMARK  status: ('A' for Active; 'I' for Inactive)
REMARK    9  A    between atoms: CA   and  CB  
REMARK   10  A    between atoms: CB   and  CG  
ROOT
ATOM     28  CA  LEU A  27     -11.471  23.771  64.549  1.00 37.04     0.177 C 
ENDROOT
BRANCH  28  29
ATOM     29  CB  LEU A  27     -12.225  22.902  65.570  1.00 37.70     0.038 C 
BRANCH  29  30
ATOM     30  CG  LEU A  27     -12.567  23.420  66.967  1.00 36.32    -0.020 C 
ATOM     31  CD1 LEU A  27     -13.755  24.368  66.937  1.00 32.79     0.009 C 
ATOM     32  CD2 LEU A  27     -12.853  22.241  67.885  1.00 31.17     0.009 C 
ENDBRANCH  29  30
ENDBRANCH  28  29
END_RES LEU A  27
BEGIN_RES MET A  49
REMARK  3 active torsions:
REMARK  status: ('A' for Active; 'I' for Inactive)
REMARK   11  A    between atoms: CA   and  CB  
REMARK   12  A    between atoms: CB   and  CG  
REMARK   13  A    between atoms: CG   and  SD  
ROOT
ATOM     33  CA  MET A  49      -9.418  15.600  76.823  1.00 61.58     0.177 C 
ENDROOT
BRANCH  33  34
ATOM     34  CB  MET A  49      -8.930  15.410  75.386  1.00 62.15     0.045 C 
BRANCH  34  35
ATOM     35  CG  MET A  49      -9.551  16.385  74.398  1.00 60.24     0.076 C 
BRANCH  35  36
ATOM     36  SD  MET A  49      -8.411  16.911  73.103  1.00 77.15    -0.173 SA
ATOM     37  CE  MET A  49      -8.705  18.678  73.096  1.00 60.34     0.089 C 
ENDBRANCH  35  36
ENDBRANCH  34  35
ENDBRANCH  33  34
END_RES MET A  49
BEGIN_RES GLU A 166
REMARK  3 active torsions:
REMARK  status: ('A' for Active; 'I' for Inactive)
REMARK   14  A    between atoms: CA   and  CB  
REMARK   15  A    between atoms: CB   and  CG  
REMARK   16  A    between atoms: CG   and  CD  
ROOT
ATOM     38  CA  GLU A 166     -14.746   9.219  66.167  1.00 28.52     0.177 C 
ENDROOT
BRANCH  38  39
ATOM     39  CB  GLU A 166     -13.578   9.064  65.189  1.00 29.90     0.045 C 
BRANCH  39  40
ATOM     40  CG  GLU A 166     -13.631   7.839  64.296  1.00 36.08     0.116 C 
BRANCH  40  41
ATOM     41  CD  GLU A 166     -12.369   7.684  63.469  1.00 45.17     0.172 C 
ATOM     42  OE2 GLU A 166     -11.366   8.361  63.781  1.00 40.54    -0.648 OA
ATOM     43  OE1 GLU A 166     -12.373   6.877  62.514  1.00 50.70    -0.648 OA
ENDBRANCH  40  41
ENDBRANCH  39  40
ENDBRANCH  38  39
END_RES GLU A 166
BEGIN_RES HIS A 163
REMARK  2 active torsions:
REMARK  status: ('A' for Active; 'I' for Inactive)
REMARK   17  A    between atoms: CA   and  CB  
REMARK   18  A    between atoms: CB   and  CG  
ROOT
ATOM     44  CA  HIS A 163     -19.055  16.637  64.100  1.00 27.27     0.182 C 
ENDROOT
BRANCH  44  45
ATOM     45  CB  HIS A 163     -18.129  16.377  62.914  1.00 26.00     0.093 C 
BRANCH  45  46
ATOM     46  CG  HIS A 163     -17.100  15.325  63.181  1.00 26.66     0.028 A 
ATOM     47  ND1 HIS A 163     -15.756  15.611  63.285  1.00 26.97    -0.354 N 
ATOM     48  CE1 HIS A 163     -15.087  14.495  63.515  1.00 30.44     0.180 A 
ATOM     49  HD1 HIS A 163     -15.342  16.539  63.197  1.00  0.00     0.166 HD
ATOM     50  NE2 HIS A 163     -15.949  13.495  63.559  1.00 30.00    -0.360 N 
ATOM     51  CD2 HIS A 163     -17.215  13.987  63.353  1.00 29.24     0.114 A 
ATOM     52  HE2 HIS A 163     -15.713  12.516  63.721  1.00  0.00     0.166 HD
ENDBRANCH  45  46
ENDBRANCH  44  45
END_RES HIS A 163
BEGIN_RES HIS A 172
REMARK  2 active torsions:
REMARK  status: ('A' for Active; 'I' for Inactive)
REMARK   19  A    between atoms: CA   and  CB  
REMARK   20  A    between atoms: CB   and  CG  
ROOT
ATOM     53  CA  HIS A 172     -18.444   9.111  64.049  1.00 29.85     0.182 C 
ENDROOT
BRANCH  53  54
ATOM     54  CB  HIS A 172     -18.188  10.085  62.898  1.00 26.76     0.093 C 
BRANCH  54  55
ATOM     55  CG  HIS A 172     -16.927   9.801  62.145  1.00 28.76     0.028 A 
ATOM     56  CD2 HIS A 172     -16.710   9.121  60.994  1.00 29.36     0.114 A 
ATOM     57  NE2 HIS A 172     -15.360   9.173  60.740  1.00 33.77    -0.360 N 
ATOM     58  CE1 HIS A 172     -14.770   9.864  61.700  1.00 32.44     0.180 A 
ATOM     59  HE2 HIS A 172     -14.891   8.746  59.942  1.00  0.00     0.166 HD
ATOM     60  ND1 HIS A 172     -15.693  10.258  62.558  1.00 29.32    -0.354 N 
ATOM     61  HD1 HIS A 172     -15.521  10.814  63.396  1.00  0.00     0.166 HD
ENDBRANCH  54  55
ENDBRANCH  53  54
END_RES HIS A 172
BEGIN_RES THR A  26
REMARK  2 active torsions:
REMARK  status: ('A' for Active; 'I' for Inactive)
REMARK   21  A    between atoms: CA   and  CB  
REMARK   22  A    between atoms: CB   and  OG1 
ROOT
ATOM     62  CA  THR A  26      -8.224  25.031  66.060  1.00 43.98     0.205 C 
ENDROOT
BRANCH  62  63
ATOM     63  CB  THR A  26      -7.184  25.490  65.034  1.00 45.90     0.146 C 
ATOM     64  CG2 THR A  26      -7.853  26.017  63.763  1.00 47.20     0.042 C 
BRANCH  63  65
ATOM     65  OG1 THR A  26      -6.358  26.512  65.604  1.00 50.51    -0.393 OA
ATOM     66  HG1 THR A  26      -5.444  26.325  65.424  1.00  0.00     0.210 HD
ENDBRANCH  63  65
ENDBRANCH  62  63
END_RES THR A  26
ENDMDL
MODEL 7
REMARK VINA RESULT:      -7.4      2.116      3.114
REMARK  14 active torsions:
REMARK  status: ('A' for Active; 'I' for Inactive)
REMARK    1  A    between atoms: C2_2  and  O1_3 
REMARK    2  A    between atoms: O1_3  and  C3_4 
REMARK    3  A    between atoms: C3_4  and  C4_6 
REMARK    4  A    between atoms: C5_7  and  C6_8 
REMARK    5  A    between atoms: C6_8  and  C7_9 
REMARK    6  A    between atoms: C6_8  and  N2_16 
REMARK    7  A    between atoms: C7_9  and  C8_10 
REMARK       I    between atoms: N2_16  and  C12_17 
REMARK    8  A    between atoms: C12_17  and  C13_19 
REMARK    9  A    between atoms: C13_19  and  C14_20 
REMARK   10  A    between atoms: C13_19  and  N3_28 
REMARK   11  A    between atoms: C14_20  and  C15_21 
REMARK       I    between atoms: N3_28  and  C21_29 
REMARK   12  A    between atoms: C21_29  and  C22_31 
REMARK   13  A    between atoms: C22_31  and  N4_32 
REMARK       I    between atoms: N4_32  and  C23_33 
REMARK   14  A    between atoms: C23_33  and  C24_35 
ROOT
HETATM    1  C1  UNL     1     -13.092  12.266  71.985  1.00  0.00     0.034 C 
HETATM    2  C2  UNL     1     -14.065  13.387  72.344  1.00  0.00     0.174 C 
ENDROOT
BRANCH   2   3
HETATM    3  O1  UNL     1     -13.363  14.280  73.153  1.00  0.00    -0.319 OA
BRANCH   3   4
HETATM    4  C3  UNL     1     -13.122  15.620  72.827  1.00  0.00     0.282 C 
HETATM    5  O2  UNL     1     -13.240  16.456  73.744  1.00  0.00    -0.260 OA
BRANCH   4   6
HETATM    6  C4  UNL     1     -12.748  15.964  71.441  1.00  0.00     0.080 C 
HETATM    7  C5  UNL     1     -11.601  15.619  70.929  1.00  0.00     0.004 C 
BRANCH   7   8
HETATM    8  C6  UNL     1     -11.119  15.905  69.564  1.00  0.00     0.108 C 
BRANCH   8   9
HETATM    9  C7  UNL     1     -10.794  14.662  68.804  1.00  0.00     0.043 C 
BRANCH   9  10
HETATM   10  C8  UNL     1     -10.760  14.774  67.329  1.00  0.00     0.081 C 
HETATM   11  C9  UNL     1     -11.299  13.494  66.704  1.00  0.00     0.034 C 
HETATM   12  C10 UNL     1     -10.163  13.019  65.849  1.00  0.00     0.123 C 
HETATM   13  N1  UNL     1      -9.341  14.180  65.569  1.00  0.00    -0.361 N 
HETATM   14  C11 UNL     1      -9.484  15.041  66.692  1.00  0.00     0.221 C 
HETATM   15  H16 UNL     1      -8.755  14.347  64.697  1.00  0.00     0.162 HD
HETATM   16  O3  UNL     1      -8.613  15.872  67.021  1.00  0.00    -0.273 OA
ENDBRANCH   9  10
ENDBRANCH   8   9
BRANCH   8  17
HETATM   17  N2  UNL     1      -9.964  16.819  69.575  1.00  0.00    -0.351 N 
HETATM   18  C12 UNL     1     -10.030  18.104  69.019  1.00  0.00     0.241 C 
HETATM   19  O4  UNL     1     -11.166  18.452  68.496  1.00  0.00    -0.271 OA
HETATM   20  H17 UNL     1      -9.094  16.459  69.988  1.00  0.00     0.163 HD
BRANCH  18  21
HETATM   21  C13 UNL     1      -8.932  19.064  68.975  1.00  0.00     0.180 C 
BRANCH  21  22
HETATM   22  C14 UNL     1      -8.900  20.042  67.889  1.00  0.00     0.073 C 
BRANCH  22  23
HETATM   23  C15 UNL     1      -7.678  20.210  67.103  1.00  0.00    -0.056 A 
HETATM   24  C16 UNL     1      -7.514  19.497  65.907  1.00  0.00     0.010 A 
HETATM   25  C17 UNL     1      -6.415  19.649  65.093  1.00  0.00     0.043 A 
HETATM   26  C18 UNL     1      -5.410  20.529  65.430  1.00  0.00     0.116 A 
HETATM   27  F1  UNL     1      -4.308  20.691  64.632  1.00  0.00    -0.206 F 
HETATM   28  C19 UNL     1      -5.534  21.250  66.598  1.00  0.00     0.043 A 
HETATM   29  C20 UNL     1      -6.637  21.089  67.405  1.00  0.00     0.010 A 
ENDBRANCH  22  23
ENDBRANCH  21  22
BRANCH  21  30
HETATM   30  N3  UNL     1      -7.689  18.313  69.120  1.00  0.00    -0.346 N 
HETATM   31  C21 UNL     1      -6.665  18.559  70.056  1.00  0.00     0.239 C 
HETATM   32  O5  UNL     1      -6.949  19.560  70.805  1.00  0.00    -0.271 OA
HETATM   33  H25 UNL     1      -7.484  17.511  68.488  1.00  0.00     0.163 HD
BRANCH  31  34
HETATM   34  C22 UNL     1      -5.449  17.809  70.171  1.00  0.00     0.154 A 
HETATM   35  C28 UNL     1      -4.172  18.181  69.353  1.00  0.00    -0.022 A 
HETATM   36  C29 UNL     1      -2.968  17.169  69.760  1.00  0.00     0.017 C 
HETATM   37  C30 UNL     1      -4.231  17.783  67.797  1.00  0.00     0.017 C 
HETATM   38  C31 UNL     1      -4.315  18.538  69.389  1.00  0.00     0.053 A 
BRANCH  34  39
HETATM   39  N4  UNL     1      -5.810  16.432  69.850  1.00  0.00    -0.344 N 
HETATM   40  C23 UNL     1      -5.994  15.375  70.720  1.00  0.00     0.273 C 
HETATM   41  O6  UNL     1      -5.832  15.604  71.956  1.00  0.00    -0.266 OA
HETATM   42  H27 UNL     1      -5.933  16.292  68.845  1.00  0.00     0.163 HD
BRANCH  40  43
HETATM   43  C24 UNL     1      -6.357  14.040  70.334  1.00  0.00     0.154 A 
HETATM   44  C25 UNL     1      -7.301  13.608  69.410  1.00  0.00     0.074 A 
HETATM   45  C26 UNL     1      -7.286  12.223  69.392  1.00  0.00     0.077 A 
HETATM   46  C27 UNL     1      -8.138  11.333  68.548  1.00  0.00     0.079 C 
HETATM   47  O7  UNL     1      -6.382  11.885  70.258  1.00  0.00    -0.218 OA
HETATM   48  N5  UNL     1      -5.824  12.908  70.821  1.00  0.00    -0.123 NA
ENDBRANCH  40  43
ENDBRANCH  34  39
ENDBRANCH  31  34
ENDBRANCH  21  30
ENDBRANCH  18  21
ENDBRANCH   8  17
ENDBRANCH   7   8
ENDBRANCH   4   6
ENDBRANCH   3   4
ENDBRANCH   2   3
TORSDOF 14
BEGIN_RES HIS A  41
REMARK  2 active torsions:
REMARK  status: ('A' for Active; 'I' for Inactive)
REMARK    1  A    between atoms: CA   and  CB  
REMARK    2  A    between atoms: CB   and  CG  
ROOT
ATOM      1  CA  HIS A  41     -13.820  21.037  73.265  1.00 38.89     0.182 C 
ENDROOT
BRANCH   1   2
ATOM      2  CB  HIS A  41     -13.705  19.545  72.937  1.00 42.38     0.093 C 
BRANCH   2   3
ATOM      3  CG  HIS A  41     -14.237  19.175  71.588  1.00 37.90     0.028 A 
ATOM      4  CD2 HIS A  41     -15.389  18.568  71.218  1.00 37.33     0.114 A 
ATOM      5  NE2 HIS A  41     -15.377  18.478  69.848  1.00 41.88    -0.360 N 
ATOM      6  CE1 HIS A  41     -14.260  19.017  69.392  1.00 41.55     0.180 A 
ATOM      7  HE2 HIS A  41     -16.112  18.062  69.275  1.00  0.00     0.166 HD
ATOM      8  ND1 HIS A  41     -13.555  19.448  70.422  1.00 36.57    -0.354 N 
ATOM      9  HD1 HIS A  41     -12.648  19.910  70.363  1.00  0.00     0.166 HD
ENDBRANCH   2   3
ENDBRANCH   1   2
END_RES HIS A  41
BEGIN_RES CYS A 145
REMARK  1 active torsions:
REMARK  status: ('A' for Active; 'I' for Inactive)
REMARK    3  A    between atoms: CA   and  CB  
ROOT
ATOM     10  CA  CYS A 145     -14.607  19.162  64.101  1.00 29.71     0.186 C 
ENDROOT
BRANCH  10  11
ATOM     11  CB  CYS A 145     -14.100  19.110  65.541  1.00 31.75     0.120 C 
ATOM     12  SG  CYS A 145     -13.537  17.476  66.051  1.00 39.68    -0.095 SA
ENDBRANCH  10  11
END_RES CYS A 145
BEGIN_RES GLN A 189
REMARK  3 active torsions:
REMARK  status: ('A' for Active; 'I' for Inactive)
REMARK    4  A    between atoms: CA   and  CB  
REMARK    5  A    between atoms: CB   and  CG  
REMARK    6  A    between atoms: CG   and  CD  
REMARK       I    between atoms: CD   and  NE2 
ROOT
ATOM     13  CA  GLN A 189     -11.641  10.633  75.105  1.00 38.41     0.177 C 
ENDROOT
BRANCH  13  14
ATOM     14  CB  GLN A 189     -10.259  11.109  74.679  1.00 37.59     0.044 C 
BRANCH  14  15
ATOM     15  CG  GLN A 189     -10.056  11.111  73.173  1.00 45.60     0.105 C 
BRANCH  15  16
ATOM     16  CD  GLN A 189      -9.057  12.156  72.718  1.00 47.27     0.215 C 
ATOM     17  NE2 GLN A 189      -7.778  11.906  72.977  1.00 44.45    -0.370 N 
ATOM     18 2HE2 GLN A 189      -7.468  11.061  73.456  1.00  0.00     0.159 HD
ATOM     19 1HE2 GLN A 189      -7.106  12.610  72.671  1.00  0.00     0.159 HD
ATOM     20  OE1 GLN A 189      -9.431  13.177  72.139  1.00 41.09    -0.274 OA
ENDBRANCH  15  16
ENDBRANCH  14  15
ENDBRANCH  13  14
END_RES GLN A 189
BEGIN_RES ASN A 142
REMARK  2 active torsions:
REMARK  status: ('A' for Active; 'I' for Inactive)
REMARK    7  A    between atoms: CA   and  CB  
REMARK    8  A    between atoms: CB   and  CG  
REMARK       I    between atoms: CG   and  ND2 
ROOT
ATOM     21  CA  ASN A 142      -7.978  15.712  62.559  1.00 43.18     0.185 C 
ENDROOT
BRANCH  21  22
ATOM     22  CB  ASN A 142      -6.512  15.609  62.983  1.00 38.76     0.137 C 
BRANCH  22  23
ATOM     23  CG  ASN A 142      -6.347  15.087  64.398  1.00 50.71     0.217 C 
ATOM     24  ND2 ASN A 142      -6.057  15.988  65.330  1.00 55.08    -0.370 N 
ATOM     25 2HD2 ASN A 142      -5.948  16.981  65.120  1.00  0.00     0.159 HD
ATOM     26 1HD2 ASN A 142      -5.945  15.637  66.282  1.00  0.00     0.159 HD
ATOM     27  OD1 ASN A 142      -6.478  13.891  64.651  1.00 51.97    -0.274 OA
ENDBRANCH  22  23
ENDBRANCH  21  22
END_RES ASN A 142
BEGIN_RES LEU A  27
REMARK  2 active torsions:
REMARK  status: ('A' for Active; 'I' for Inactive)
REMARK    9  A    between atoms: CA   and  CB  
REMARK   10  A    between atoms: CB   and  CG  
ROOT
ATOM     28  CA  LEU A  27     -11.471  23.771  64.549  1.00 37.04     0.177 C 
ENDROOT
BRANCH  28  29
ATOM     29  CB  LEU A  27     -12.225  22.902  65.570  1.00 37.70     0.038 C 
BRANCH  29  30
ATOM     30  CG  LEU A  27     -12.483  23.383  66.998  1.00 36.32    -0.020 C 
ATOM     31  CD1 LEU A  27     -13.839  24.060  67.124  1.00 32.79     0.009 C 
ATOM     32  CD2 LEU A  27     -12.390  22.202  67.952  1.00 31.17     0.009 C 
ENDBRANCH  29  30
ENDBRANCH  28  29
END_RES LEU A  27
BEGIN_RES MET A  49
REMARK  3 active torsions:
REMARK  status: ('A' for Active; 'I' for Inactive)
REMARK   11  A    between atoms: CA   and  CB  
REMARK   12  A    between atoms: CB   and  CG  
REMARK   13  A    between atoms: CG   and  SD  
ROOT
ATOM     33  CA  MET A  49      -9.418  15.600  76.823  1.00 61.58     0.177 C 
ENDROOT
BRANCH  33  34
ATOM     34  CB  MET A  49      -8.930  15.410  75.386  1.00 62.15     0.045 C 
BRANCH  34  35
ATOM     35  CG  MET A  49      -9.785  16.127  74.353  1.00 60.24     0.076 C 
BRANCH  35  36
ATOM     36  SD  MET A  49      -8.823  17.131  73.204  1.00 77.15    -0.173 SA
ATOM     37  CE  MET A  49     -10.009  18.414  72.807  1.00 60.34     0.089 C 
ENDBRANCH  35  36
ENDBRANCH  34  35
ENDBRANCH  33  34
END_RES MET A  49
BEGIN_RES GLU A 166
REMARK  3 active torsions:
REMARK  status: ('A' for Active; 'I' for Inactive)
REMARK   14  A    between atoms: CA   and  CB  
REMARK   15  A    between atoms: CB   and  CG  
REMARK   16  A    between atoms: CG   and  CD  
ROOT
ATOM     38  CA  GLU A 166     -14.746   9.219  66.167  1.00 28.52     0.177 C 
ENDROOT
BRANCH  38  39
ATOM     39  CB  GLU A 166     -13.578   9.064  65.189  1.00 29.90     0.045 C 
BRANCH  39  40
ATOM     40  CG  GLU A 166     -12.541  10.170  65.228  1.00 36.08     0.116 C 
BRANCH  40  41
ATOM     41  CD  GLU A 166     -12.485  10.942  63.923  1.00 45.17     0.172 C 
ATOM     42  OE2 GLU A 166     -12.972  12.092  63.891  1.00 40.54    -0.648 OA
ATOM     43  OE1 GLU A 166     -11.943  10.405  62.933  1.00 50.70    -0.648 OA
ENDBRANCH  40  41
ENDBRANCH  39  40
ENDBRANCH  38  39
END_RES GLU A 166
BEGIN_RES HIS A 163
REMARK  2 active torsions:
REMARK  status: ('A' for Active; 'I' for Inactive)
REMARK   17  A    between atoms: CA   and  CB  
REMARK   18  A    between atoms: CB   and  CG  
ROOT
ATOM     44  CA  HIS A 163     -19.055  16.637  64.100  1.00 27.27     0.182 C 
ENDROOT
BRANCH  44  45
ATOM     45  CB  HIS A 163     -18.129  16.377  62.914  1.00 26.00     0.093 C 
BRANCH  45  46
ATOM     46  CG  HIS A 163     -17.112  15.311  63.174  1.00 26.66     0.028 A 
ATOM     47  ND1 HIS A 163     -17.452  13.985  63.338  1.00 26.97    -0.354 N 
ATOM     48  CE1 HIS A 163     -16.359  13.277  63.559  1.00 30.44     0.180 A 
ATOM     49  HD1 HIS A 163     -18.399  13.610  63.295  1.00  0.00     0.166 HD
ATOM     50  NE2 HIS A 163     -15.323  14.097  63.549  1.00 30.00    -0.360 N 
ATOM     51  CD2 HIS A 163     -15.767  15.375  63.312  1.00 29.24     0.114 A 
ATOM     52  HE2 HIS A 163     -14.351  13.825  63.695  1.00  0.00     0.166 HD
ENDBRANCH  45  46
ENDBRANCH  44  45
END_RES HIS A 163
BEGIN_RES HIS A 172
REMARK  2 active torsions:
REMARK  status: ('A' for Active; 'I' for Inactive)
REMARK   19  A    between atoms: CA   and  CB  
REMARK   20  A    between atoms: CB   and  CG  
ROOT
ATOM     53  CA  HIS A 172     -18.444   9.111  64.049  1.00 29.85     0.182 C 
ENDROOT
BRANCH  53  54
ATOM     54  CB  HIS A 172     -18.188  10.085  62.898  1.00 26.76     0.093 C 
BRANCH  54  55
ATOM     55  CG  HIS A 172     -16.889   9.848  62.193  1.00 28.76     0.028 A 
ATOM     56  CD2 HIS A 172     -15.612  10.077  62.578  1.00 29.36     0.114 A 
ATOM     57  NE2 HIS A 172     -14.798   9.665  61.550  1.00 33.77    -0.360 N 
ATOM     58  CE1 HIS A 172     -15.550   9.195  60.570  1.00 32.44     0.180 A 
ATOM     59  HE2 HIS A 172     -13.780   9.714  61.545  1.00  0.00     0.166 HD
ATOM     60  ND1 HIS A 172     -16.817   9.291  60.934  1.00 29.32    -0.354 N 
ATOM     61  HD1 HIS A 172     -17.616   8.998  60.372  1.00  0.00     0.166 HD
ENDBRANCH  54  55
ENDBRANCH  53  54
END_RES HIS A 172
BEGIN_RES THR A  26
REMARK  2 active torsions:
REMARK  status: ('A' for Active; 'I' for Inactive)
REMARK   21  A    between atoms: CA   and  CB  
REMARK   22  A    between atoms: CB   and  OG1 
ROOT
ATOM     62  CA  THR A  26      -8.224  25.031  66.060  1.00 43.98     0.205 C 
ENDROOT
BRANCH  62  63
ATOM     63  CB  THR A  26      -7.184  25.490  65.034  1.00 45.90     0.146 C 
ATOM     64  CG2 THR A  26      -7.852  25.977  63.746  1.00 47.20     0.042 C 
BRANCH  63  65
ATOM     65  OG1 THR A  26      -6.385  26.540  65.590  1.00 50.51    -0.393 OA
ATOM     66  HG1 THR A  26      -5.623  26.690  65.041  1.00  0.00     0.210 HD
ENDBRANCH  63  65
ENDBRANCH  62  63
END_RES THR A  26
ENDMDL
MODEL 8
REMARK VINA RESULT:      -7.3      2.169      4.535
REMARK  14 active torsions:
REMARK  status: ('A' for Active; 'I' for Inactive)
REMARK    1  A    between atoms: C2_2  and  O1_3 
REMARK    2  A    between atoms: O1_3  and  C3_4 
REMARK    3  A    between atoms: C3_4  and  C4_6 
REMARK    4  A    between atoms: C5_7  and  C6_8 
REMARK    5  A    between atoms: C6_8  and  C7_9 
REMARK    6  A    between atoms: C6_8  and  N2_16 
REMARK    7  A    between atoms: C7_9  and  C8_10 
REMARK       I    between atoms: N2_16  and  C12_17 
REMARK    8  A    between atoms: C12_17  and  C13_19 
REMARK    9  A    between atoms: C13_19  and  C14_20 
REMARK   10  A    between atoms: C13_19  and  N3_28 
REMARK   11  A    between atoms: C14_20  and  C15_21 
REMARK       I    between atoms: N3_28  and  C21_29 
REMARK   12  A    between atoms: C21_29  and  C22_31 
REMARK   13  A    between atoms: C22_31  and  N4_32 
REMARK       I    between atoms: N4_32  and  C23_33 
REMARK   14  A    between atoms: C23_33  and  C24_35 
ROOT
HETATM    1  C1  UNL     1     -12.160  13.932  66.435  1.00  0.00     0.034 C 
HETATM    2  C2  UNL     1     -10.685  14.049  66.060  1.00  0.00     0.174 C 
ENDROOT
BRANCH   2   3
HETATM    3  O1  UNL     1     -10.618  14.918  64.970  1.00  0.00    -0.319 OA
BRANCH   3   4
HETATM    4  C3  UNL     1     -10.832  16.299  65.047  1.00  0.00     0.282 C 
HETATM    5  O2  UNL     1     -11.453  16.829  64.105  1.00  0.00    -0.260 OA
BRANCH   4   6
HETATM    6  C4  UNL     1     -10.321  17.040  66.218  1.00  0.00     0.080 C 
HETATM    7  C5  UNL     1     -10.254  18.341  66.237  1.00  0.00     0.004 C 
BRANCH   7   8
HETATM    8  C6  UNL     1      -9.765  19.186  67.342  1.00  0.00     0.108 C 
BRANCH   8   9
HETATM    9  C7  UNL     1      -8.489  19.884  67.003  1.00  0.00     0.043 C 
BRANCH   9  10
HETATM   10  C8  UNL     1      -7.293  19.500  67.784  1.00  0.00     0.081 C 
HETATM   11  C9  UNL     1      -6.341  20.685  67.882  1.00  0.00     0.034 C 
HETATM   12  C10 UNL     1      -5.073  20.164  67.277  1.00  0.00     0.123 C 
HETATM   13  N1  UNL     1      -5.127  18.718  67.381  1.00  0.00    -0.361 N 
HETATM   14  C11 UNL     1      -6.505  18.373  67.319  1.00  0.00     0.221 C 
HETATM   15  H16 UNL     1      -4.299  18.057  67.484  1.00  0.00     0.162 HD
HETATM   16  O3  UNL     1      -6.906  17.260  66.921  1.00  0.00    -0.273 OA
ENDBRANCH   9  10
ENDBRANCH   8   9
BRANCH   8  17
HETATM   17  N2  UNL     1      -9.615  18.417  68.589  1.00  0.00    -0.351 N 
HETATM   18  C12 UNL     1     -10.171  18.853  69.800  1.00  0.00     0.241 C 
HETATM   19  O4  UNL     1     -10.830  19.970  69.767  1.00  0.00    -0.271 OA
HETATM   20  H17 UNL     1      -9.059  17.554  68.537  1.00  0.00     0.163 HD
BRANCH  18  21
HETATM   21  C13 UNL     1     -10.057  18.161  71.080  1.00  0.00     0.180 C 
BRANCH  21  22
HETATM   22  C14 UNL     1      -9.035  18.604  72.028  1.00  0.00     0.073 C 
BRANCH  22  23
HETATM   23  C15 UNL     1      -7.637  18.674  71.603  1.00  0.00    -0.056 A 
HETATM   24  C16 UNL     1      -6.948  19.893  71.668  1.00  0.00     0.010 A 
HETATM   25  C17 UNL     1      -5.620  20.017  71.336  1.00  0.00     0.043 A 
HETATM   26  C18 UNL     1      -4.896  18.921  70.918  1.00  0.00     0.116 A 
HETATM   27  F1  UNL     1      -3.572  19.028  70.582  1.00  0.00    -0.206 F 
HETATM   28  C19 UNL     1      -5.537  17.704  70.841  1.00  0.00     0.043 A 
HETATM   29  C20 UNL     1      -6.868  17.591  71.175  1.00  0.00     0.010 A 
ENDBRANCH  22  23
ENDBRANCH  21  22
BRANCH  21  30
HETATM   30  N3  UNL     1     -10.012  16.730  70.801  1.00  0.00    -0.346 N 
HETATM   31  C21 UNL     1     -11.115  15.859  70.703  1.00  0.00     0.239 C 
HETATM   32  O5  UNL     1     -12.219  16.482  70.894  1.00  0.00    -0.271 OA
HETATM   33  H25 UNL     1      -9.097  16.251  70.661  1.00  0.00     0.163 HD
BRANCH  31  34
HETATM   34  C22 UNL     1     -11.041  14.453  70.435  1.00  0.00     0.154 A 
HETATM   35  C28 UNL     1     -12.243  13.497  70.718  1.00  0.00    -0.022 A 
HETATM   36  C29 UNL     1     -11.845  11.993  70.253  1.00  0.00     0.017 C 
HETATM   37  C30 UNL     1     -12.478  13.155  72.270  1.00  0.00     0.017 C 
HETATM   38  C31 UNL     1     -12.449  13.813  70.634  1.00  0.00     0.053 A 
BRANCH  34  39
HETATM   39  N4  UNL     1      -9.890  13.973  71.192  1.00  0.00    -0.344 N 
HETATM   40  C23 UNL     1      -8.575  13.886  70.777  1.00  0.00     0.273 C 
HETATM   41  O6  UNL     1      -8.311  14.262  69.596  1.00  0.00    -0.266 OA
HETATM   42  H27 UNL     1     -10.146  13.683  72.138  1.00  0.00     0.163 HD
BRANCH  40  43
HETATM   43  C24 UNL     1      -7.485  13.408  71.582  1.00  0.00     0.154 A 
HETATM   44  C25 UNL     1      -6.221  12.976  71.198  1.00  0.00     0.074 A 
HETATM   45  C26 UNL     1      -5.526  12.609  72.339  1.00  0.00     0.077 A 
HETATM   46  C27 UNL     1      -4.130  12.083  72.401  1.00  0.00     0.079 C 
HETATM   47  O7  UNL     1      -6.349  12.820  73.318  1.00  0.00    -0.218 OA
HETATM   48  N5  UNL     1      -7.490  13.282  72.918  1.00  0.00    -0.123 NA
ENDBRANCH  40  43
ENDBRANCH  34  39
ENDBRANCH  31  34
ENDBRANCH  21  30
ENDBRANCH  18  21
ENDBRANCH   8  17
ENDBRANCH   7   8
ENDBRANCH   4   6
ENDBRANCH   3   4
ENDBRANCH   2   3
TORSDOF 14
BEGIN_RES HIS A  41
REMARK  2 active torsions:
REMARK  status: ('A' for Active; 'I' for Inactive)
REMARK    1  A    between atoms: CA   and  CB  
REMARK    2  A    between atoms: CB   and  CG  
ROOT
ATOM      1  CA  HIS A  41     -13.820  21.037  73.265  1.00 38.89     0.182 C 
ENDROOT
BRANCH   1   2
ATOM      2  CB  HIS A  41     -13.705  19.545  72.937  1.00 42.38     0.093 C 
BRANCH   2   3
ATOM      3  CG  HIS A  41     -14.225  19.177  71.583  1.00 37.90     0.028 A 
ATOM      4  CD2 HIS A  41     -15.369  18.559  71.203  1.00 37.33     0.114 A 
ATOM      5  NE2 HIS A  41     -15.348  18.478  69.832  1.00 41.88    -0.360 N 
ATOM      6  CE1 HIS A  41     -14.234  19.031  69.386  1.00 41.55     0.180 A 
ATOM      7  HE2 HIS A  41     -16.074  18.058  69.252  1.00  0.00     0.166 HD
ATOM      8  ND1 HIS A  41     -13.540  19.464  70.422  1.00 36.57    -0.354 N 
ATOM      9  HD1 HIS A  41     -12.637  19.937  70.372  1.00  0.00     0.166 HD
ENDBRANCH   2   3
ENDBRANCH   1   2
END_RES HIS A  41
BEGIN_RES CYS A 145
REMARK  1 active torsions:
REMARK  status: ('A' for Active; 'I' for Inactive)
REMARK    3  A    between atoms: CA   and  CB  
ROOT
ATOM     10  CA  CYS A 145     -14.607  19.162  64.101  1.00 29.71     0.186 C 
ENDROOT
BRANCH  10  11
ATOM     11  CB  CYS A 145     -14.100  19.110  65.541  1.00 31.75     0.120 C 
ATOM     12  SG  CYS A 145     -14.100  17.453  66.248  1.00 39.68    -0.095 SA
ENDBRANCH  10  11
END_RES CYS A 145
BEGIN_RES GLN A 189
REMARK  3 active torsions:
REMARK  status: ('A' for Active; 'I' for Inactive)
REMARK    4  A    between atoms: CA   and  CB  
REMARK    5  A    between atoms: CB   and  CG  
REMARK    6  A    between atoms: CG   and  CD  
REMARK       I    between atoms: CD   and  NE2 
ROOT
ATOM     13  CA  GLN A 189     -11.641  10.633  75.105  1.00 38.41     0.177 C 
ENDROOT
BRANCH  13  14
ATOM     14  CB  GLN A 189     -10.259  11.109  74.679  1.00 37.59     0.044 C 
BRANCH  14  15
ATOM     15  CG  GLN A 189      -9.903  10.737  73.249  1.00 45.60     0.105 C 
BRANCH  15  16
ATOM     16  CD  GLN A 189      -8.791   9.711  73.169  1.00 47.27     0.215 C 
ATOM     17  NE2 GLN A 189      -7.609  10.078  73.652  1.00 44.45    -0.370 N 
ATOM     18 2HE2 GLN A 189      -7.443  10.999  74.058  1.00  0.00     0.159 HD
ATOM     19 1HE2 GLN A 189      -6.861   9.388  73.599  1.00  0.00     0.159 HD
ATOM     20  OE1 GLN A 189      -8.993   8.599  72.679  1.00 41.09    -0.274 OA
ENDBRANCH  15  16
ENDBRANCH  14  15
ENDBRANCH  13  14
END_RES GLN A 189
BEGIN_RES ASN A 142
REMARK  2 active torsions:
REMARK  status: ('A' for Active; 'I' for Inactive)
REMARK    7  A    between atoms: CA   and  CB  
REMARK    8  A    between atoms: CB   and  CG  
REMARK       I    between atoms: CG   and  ND2 
ROOT
ATOM     21  CA  ASN A 142      -7.978  15.712  62.559  1.00 43.18     0.185 C 
ENDROOT
BRANCH  21  22
ATOM     22  CB  ASN A 142      -6.512  15.609  62.983  1.00 38.76     0.137 C 
BRANCH  22  23
ATOM     23  CG  ASN A 142      -6.336  14.907  64.316  1.00 50.71     0.217 C 
ATOM     24  ND2 ASN A 142      -5.347  15.343  65.088  1.00 55.08    -0.370 N 
ATOM     25 2HD2 ASN A 142      -4.730  16.108  64.811  1.00  0.00     0.159 HD
ATOM     26 1HD2 ASN A 142      -5.228  14.871  65.985  1.00  0.00     0.159 HD
ATOM     27  OD1 ASN A 142      -7.079  13.986  64.650  1.00 51.97    -0.274 OA
ENDBRANCH  22  23
ENDBRANCH  21  22
END_RES ASN A 142
BEGIN_RES LEU A  27
REMARK  2 active torsions:
REMARK  status: ('A' for Active; 'I' for Inactive)
REMARK    9  A    between atoms: CA   and  CB  
REMARK   10  A    between atoms: CB   and  CG  
ROOT
ATOM     28  CA  LEU A  27     -11.471  23.771  64.549  1.00 37.04     0.177 C 
ENDROOT
BRANCH  28  29
ATOM     29  CB  LEU A  27     -12.225  22.902  65.570  1.00 37.70     0.038 C 
BRANCH  29  30
ATOM     30  CG  LEU A  27     -12.551  23.413  66.973  1.00 36.32    -0.020 C 
ATOM     31  CD1 LEU A  27     -13.806  24.271  66.978  1.00 32.79     0.009 C 
ATOM     32  CD2 LEU A  27     -12.714  22.230  67.915  1.00 31.17     0.009 C 
ENDBRANCH  29  30
ENDBRANCH  28  29
END_RES LEU A  27
BEGIN_RES MET A  49
REMARK  3 active torsions:
REMARK  status: ('A' for Active; 'I' for Inactive)
REMARK   11  A    between atoms: CA   and  CB  
REMARK   12  A    between atoms: CB   and  CG  
REMARK   13  A    between atoms: CG   and  SD  
ROOT
ATOM     33  CA  MET A  49      -9.418  15.600  76.823  1.00 61.58     0.177 C 
ENDROOT
BRANCH  33  34
ATOM     34  CB  MET A  49      -8.930  15.410  75.386  1.00 62.15     0.045 C 
BRANCH  34  35
ATOM     35  CG  MET A  49      -9.862  16.005  74.342  1.00 60.24     0.076 C 
BRANCH  35  36
ATOM     36  SD  MET A  49     -11.255  16.899  75.057  1.00 77.15    -0.173 SA
ATOM     37  CE  MET A  49     -12.632  16.018  74.322  1.00 60.34     0.089 C 
ENDBRANCH  35  36
ENDBRANCH  34  35
ENDBRANCH  33  34
END_RES MET A  49
BEGIN_RES GLU A 166
REMARK  3 active torsions:
REMARK  status: ('A' for Active; 'I' for Inactive)
REMARK   14  A    between atoms: CA   and  CB  
REMARK   15  A    between atoms: CB   and  CG  
REMARK   16  A    between atoms: CG   and  CD  
ROOT
ATOM     38  CA  GLU A 166     -14.746   9.219  66.167  1.00 28.52     0.177 C 
ENDROOT
BRANCH  38  39
ATOM     39  CB  GLU A 166     -13.578   9.064  65.189  1.00 29.90     0.045 C 
BRANCH  39  40
ATOM     40  CG  GLU A 166     -12.279   8.567  65.795  1.00 36.08     0.116 C 
BRANCH  40  41
ATOM     41  CD  GLU A 166     -11.314   9.703  66.078  1.00 45.17     0.172 C 
ATOM     42  OE2 GLU A 166     -11.598  10.513  66.985  1.00 40.54    -0.648 OA
ATOM     43  OE1 GLU A 166     -10.266   9.780  65.402  1.00 50.70    -0.648 OA
ENDBRANCH  40  41
ENDBRANCH  39  40
ENDBRANCH  38  39
END_RES GLU A 166
BEGIN_RES HIS A 163
REMARK  2 active torsions:
REMARK  status: ('A' for Active; 'I' for Inactive)
REMARK   17  A    between atoms: CA   and  CB  
REMARK   18  A    between atoms: CB   and  CG  
ROOT
ATOM     44  CA  HIS A 163     -19.055  16.637  64.100  1.00 27.27     0.182 C 
ENDROOT
BRANCH  44  45
ATOM     45  CB  HIS A 163     -18.129  16.377  62.914  1.00 26.00     0.093 C 
BRANCH  45  46
ATOM     46  CG  HIS A 163     -17.101  15.323  63.180  1.00 26.66     0.028 A 
ATOM     47  ND1 HIS A 163     -15.755  15.604  63.265  1.00 26.97    -0.354 N 
ATOM     48  CE1 HIS A 163     -15.088  14.488  63.500  1.00 30.44     0.180 A 
ATOM     49  HD1 HIS A 163     -15.338  16.529  63.163  1.00  0.00     0.166 HD
ATOM     50  NE2 HIS A 163     -15.954  13.492  63.565  1.00 30.00    -0.360 N 
ATOM     51  CD2 HIS A 163     -17.220  13.988  63.368  1.00 29.24     0.114 A 
ATOM     52  HE2 HIS A 163     -15.720  12.514  63.734  1.00  0.00     0.166 HD
ENDBRANCH  45  46
ENDBRANCH  44  45
END_RES HIS A 163
BEGIN_RES HIS A 172
REMARK  2 active torsions:
REMARK  status: ('A' for Active; 'I' for Inactive)
REMARK   19  A    between atoms: CA   and  CB  
REMARK   20  A    between atoms: CB   and  CG  
ROOT
ATOM     53  CA  HIS A 172     -18.444   9.111  64.049  1.00 29.85     0.182 C 
ENDROOT
BRANCH  53  54
ATOM     54  CB  HIS A 172     -18.188  10.085  62.898  1.00 26.76     0.093 C 
BRANCH  54  55
ATOM     55  CG  HIS A 172     -16.878   9.864  62.209  1.00 28.76     0.028 A 
ATOM     56  CD2 HIS A 172     -15.614  10.179  62.576  1.00 29.36     0.114 A 
ATOM     57  NE2 HIS A 172     -14.779   9.739  61.577  1.00 33.77    -0.360 N 
ATOM     58  CE1 HIS A 172     -15.506   9.168  60.632  1.00 32.44     0.180 A 
ATOM     59  HE2 HIS A 172     -13.764   9.836  61.567  1.00  0.00     0.166 HD
ATOM     60  ND1 HIS A 172     -16.777   9.227  60.990  1.00 29.32    -0.354 N 
ATOM     61  HD1 HIS A 172     -17.560   8.859  60.450  1.00  0.00     0.166 HD
ENDBRANCH  54  55
ENDBRANCH  53  54
END_RES HIS A 172
BEGIN_RES THR A  26
REMARK  2 active torsions:
REMARK  status: ('A' for Active; 'I' for Inactive)
REMARK   21  A    between atoms: CA   and  CB  
REMARK   22  A    between atoms: CB   and  OG1 
ROOT
ATOM     62  CA  THR A  26      -8.224  25.031  66.060  1.00 43.98     0.205 C 
ENDROOT
BRANCH  62  63
ATOM     63  CB  THR A  26      -7.184  25.490  65.034  1.00 45.90     0.146 C 
ATOM     64  CG2 THR A  26      -7.853  26.021  63.765  1.00 47.20     0.042 C 
BRANCH  63  65
ATOM     65  OG1 THR A  26      -6.356  26.508  65.605  1.00 50.51    -0.393 OA
ATOM     66  HG1 THR A  26      -5.456  26.389  65.322  1.00  0.00     0.210 HD
ENDBRANCH  63  65
ENDBRANCH  62  63
END_RES THR A  26
ENDMDL
MODEL 9
REMARK VINA RESULT:      -7.2      2.610      5.893
REMARK  14 active torsions:
REMARK  status: ('A' for Active; 'I' for Inactive)
REMARK    1  A    between atoms: C2_2  and  O1_3 
REMARK    2  A    between atoms: O1_3  and  C3_4 
REMARK    3  A    between atoms: C3_4  and  C4_6 
REMARK    4  A    between atoms: C5_7  and  C6_8 
REMARK    5  A    between atoms: C6_8  and  C7_9 
REMARK    6  A    between atoms: C6_8  and  N2_16 
REMARK    7  A    between atoms: C7_9  and  C8_10 
REMARK       I    between atoms: N2_16  and  C12_17 
REMARK    8  A    between atoms: C12_17  and  C13_19 
REMARK    9  A    between atoms: C13_19  and  C14_20 
REMARK   10  A    between atoms: C13_19  and  N3_28 
REMARK   11  A    between atoms: C14_20  and  C15_21 
REMARK       I    between atoms: N3_28  and  C21_29 
REMARK   12  A    between atoms: C21_29  and  C22_31 
REMARK   13  A    between atoms: C22_31  and  N4_32 
REMARK       I    between atoms: N4_32  and  C23_33 
REMARK   14  A    between atoms: C23_33  and  C24_35 
ROOT
HETATM    1  C1  UNL     1      -6.304  16.354  72.020  1.00  0.00     0.034 C 
HETATM    2  C2  UNL     1      -6.784  17.764  72.357  1.00  0.00     0.174 C 
ENDROOT
BRANCH   2   3
HETATM    3  O1  UNL     1      -5.734  18.628  72.046  1.00  0.00    -0.319 OA
BRANCH   3   4
HETATM    4  C3  UNL     1      -5.811  19.659  71.102  1.00  0.00     0.282 C 
HETATM    5  O2  UNL     1      -5.732  20.827  71.532  1.00  0.00    -0.260 OA
BRANCH   4   6
HETATM    6  C4  UNL     1      -5.980  19.315  69.677  1.00  0.00     0.080 C 
HETATM    7  C5  UNL     1      -4.966  19.033  68.909  1.00  0.00     0.004 C 
BRANCH   7   8
HETATM    8  C6  UNL     1      -5.010  18.677  67.479  1.00  0.00     0.108 C 
BRANCH   8   9
HETATM    9  C7  UNL     1      -4.246  19.637  66.629  1.00  0.00     0.043 C 
BRANCH   9  10
HETATM   10  C8  UNL     1      -5.013  20.370  65.598  1.00  0.00     0.081 C 
HETATM   11  C9  UNL     1      -4.085  20.786  64.465  1.00  0.00     0.034 C 
HETATM   12  C10 UNL     1      -4.229  22.277  64.426  1.00  0.00     0.123 C 
HETATM   13  N1  UNL     1      -5.505  22.587  65.042  1.00  0.00    -0.361 N 
HETATM   14  C11 UNL     1      -5.734  21.563  66.002  1.00  0.00     0.221 C 
HETATM   15  H16 UNL     1      -6.136  23.413  64.814  1.00  0.00     0.162 HD
HETATM   16  O3  UNL     1      -6.454  21.730  67.008  1.00  0.00    -0.273 OA
ENDBRANCH   9  10
ENDBRANCH   8   9
BRANCH   8  17
HETATM   17  N2  UNL     1      -6.395  18.549  66.993  1.00  0.00    -0.351 N 
HETATM   18  C12 UNL     1      -7.012  17.301  66.829  1.00  0.00     0.241 C 
HETATM   19  O4  UNL     1      -6.300  16.258  67.133  1.00  0.00    -0.271 OA
HETATM   20  H17 UNL     1      -6.883  19.422  66.752  1.00  0.00     0.163 HD
BRANCH  18  21
HETATM   21  C13 UNL     1      -8.370  17.086  66.341  1.00  0.00     0.180 C 
BRANCH  21  22
HETATM   22  C14 UNL     1      -9.421  18.013  66.761  1.00  0.00     0.073 C 
BRANCH  22  23
HETATM   23  C15 UNL     1      -9.663  18.234  68.187  1.00  0.00    -0.056 A 
HETATM   24  C16 UNL     1     -10.007  17.154  69.012  1.00  0.00     0.010 A 
HETATM   25  C17 UNL     1     -10.194  17.282  70.368  1.00  0.00     0.043 A 
HETATM   26  C18 UNL     1     -10.046  18.506  70.984  1.00  0.00     0.116 A 
HETATM   27  F1  UNL     1     -10.231  18.651  72.333  1.00  0.00    -0.206 F 
HETATM   28  C19 UNL     1      -9.707  19.593  70.208  1.00  0.00     0.043 A 
HETATM   29  C20 UNL     1      -9.522  19.453  68.850  1.00  0.00     0.010 A 
ENDBRANCH  22  23
ENDBRANCH  21  22
BRANCH  21  30
HETATM   30  N3  UNL     1      -8.702  15.685  66.576  1.00  0.00    -0.346 N 
HETATM   31  C21 UNL     1      -9.636  14.913  65.857  1.00  0.00     0.239 C 
HETATM   32  O5  UNL     1     -10.194  15.600  64.930  1.00  0.00    -0.271 OA
HETATM   33  H25 UNL     1      -8.238  15.157  67.345  1.00  0.00     0.163 HD
BRANCH  31  34
HETATM   34  C22 UNL     1      -9.949  13.538  66.114  1.00  0.00     0.154 A 
HETATM   35  C28 UNL     1     -10.501  12.597  64.996  1.00  0.00    -0.022 A 
HETATM   36  C29 UNL     1     -10.695  11.104  65.607  1.00  0.00     0.017 C 
HETATM   37  C30 UNL     1     -12.043  12.842  64.613  1.00  0.00     0.017 C 
HETATM   38  C31 UNL     1     -10.286  12.824  64.769  1.00  0.00     0.053 A 
BRANCH  34  39
HETATM   39  N4  UNL     1     -10.912  13.556  67.210  1.00  0.00    -0.344 N 
HETATM   40  C23 UNL     1     -10.656  13.581  68.567  1.00  0.00     0.273 C 
HETATM   41  O6  UNL     1      -9.442  13.586  68.931  1.00  0.00    -0.266 OA
HETATM   42  H27 UNL     1     -11.877  13.554  66.874  1.00  0.00     0.163 HD
BRANCH  40  43
HETATM   43  C24 UNL     1     -11.658  13.605  69.597  1.00  0.00     0.154 A 
HETATM   44  C25 UNL     1     -12.589  14.589  69.907  1.00  0.00     0.074 A 
HETATM   45  C26 UNL     1     -13.337  14.150  70.988  1.00  0.00     0.077 A 
HETATM   46  C27 UNL     1     -14.450  14.885  71.659  1.00  0.00     0.079 C 
HETATM   47  O7  UNL     1     -12.857  12.980  71.276  1.00  0.00    -0.218 OA
HETATM   48  N5  UNL     1     -11.887  12.632  70.494  1.00  0.00    -0.123 NA
ENDBRANCH  40  43
ENDBRANCH  34  39
ENDBRANCH  31  34
ENDBRANCH  21  30
ENDBRANCH  18  21
ENDBRANCH   8  17
ENDBRANCH   7   8
ENDBRANCH   4   6
ENDBRANCH   3   4
ENDBRANCH   2   3
TORSDOF 14
BEGIN_RES HIS A  41
REMARK  2 active torsions:
REMARK  status: ('A' for Active; 'I' for Inactive)
REMARK    1  A    between atoms: CA   and  CB  
REMARK    2  A    between atoms: CB   and  CG  
ROOT
ATOM      1  CA  HIS A  41     -13.820  21.037  73.265  1.00 38.89     0.182 C 
ENDROOT
BRANCH   1   2
ATOM      2  CB  HIS A  41     -13.705  19.545  72.937  1.00 42.38     0.093 C 
BRANCH   2   3
ATOM      3  CG  HIS A  41     -14.082  19.200  71.531  1.00 37.90     0.028 A 
ATOM      4  CD2 HIS A  41     -13.468  19.458  70.352  1.00 37.33     0.114 A 
ATOM      5  NE2 HIS A  41     -14.245  18.906  69.362  1.00 41.88    -0.360 N 
ATOM      6  CE1 HIS A  41     -15.296  18.325  69.914  1.00 41.55     0.180 A 
ATOM      7  HE2 HIS A  41     -14.043  18.940  68.363  1.00  0.00     0.166 HD
ATOM      8  ND1 HIS A  41     -15.220  18.486  71.223  1.00 36.57    -0.354 N 
ATOM      9  HD1 HIS A  41     -15.898  18.135  71.900  1.00  0.00     0.166 HD
ENDBRANCH   2   3
ENDBRANCH   1   2
END_RES HIS A  41
BEGIN_RES CYS A 145
REMARK  1 active torsions:
REMARK  status: ('A' for Active; 'I' for Inactive)
REMARK    3  A    between atoms: CA   and  CB  
ROOT
ATOM     10  CA  CYS A 145     -14.607  19.162  64.101  1.00 29.71     0.186 C 
ENDROOT
BRANCH  10  11
ATOM     11  CB  CYS A 145     -14.100  19.110  65.541  1.00 31.75     0.120 C 
ATOM     12  SG  CYS A 145     -13.418  17.509  66.010  1.00 39.68    -0.095 SA
ENDBRANCH  10  11
END_RES CYS A 145
BEGIN_RES GLN A 189
REMARK  3 active torsions:
REMARK  status: ('A' for Active; 'I' for Inactive)
REMARK    4  A    between atoms: CA   and  CB  
REMARK    5  A    between atoms: CB   and  CG  
REMARK    6  A    between atoms: CG   and  CD  
REMARK       I    between atoms: CD   and  NE2 
ROOT
ATOM     13  CA  GLN A 189     -11.641  10.633  75.105  1.00 38.41     0.177 C 
ENDROOT
BRANCH  13  14
ATOM     14  CB  GLN A 189     -10.259  11.109  74.679  1.00 37.59     0.044 C 
BRANCH  14  15
ATOM     15  CG  GLN A 189     -10.163  11.449  73.201  1.00 45.60     0.105 C 
BRANCH  15  16
ATOM     16  CD  GLN A 189      -8.918  12.243  72.861  1.00 47.27     0.215 C 
ATOM     17  NE2 GLN A 189      -8.842  12.728  71.627  1.00 44.45    -0.370 N 
ATOM     18 2HE2 GLN A 189      -9.575  12.582  70.932  1.00  0.00     0.159 HD
ATOM     19 1HE2 GLN A 189      -8.003  13.262  71.398  1.00  0.00     0.159 HD
ATOM     20  OE1 GLN A 189      -8.034  12.418  73.700  1.00 41.09    -0.274 OA
ENDBRANCH  15  16
ENDBRANCH  14  15
ENDBRANCH  13  14
END_RES GLN A 189
BEGIN_RES ASN A 142
REMARK  2 active torsions:
REMARK  status: ('A' for Active; 'I' for Inactive)
REMARK    7  A    between atoms: CA   and  CB  
REMARK    8  A    between atoms: CB   and  CG  
REMARK       I    between atoms: CG   and  ND2 
ROOT
ATOM     21  CA  ASN A 142      -7.978  15.712  62.559  1.00 43.18     0.185 C 
ENDROOT
BRANCH  21  22
ATOM     22  CB  ASN A 142      -6.512  15.609  62.983  1.00 38.76     0.137 C 
BRANCH  22  23
ATOM     23  CG  ASN A 142      -6.279  14.538  64.032  1.00 50.71     0.217 C 
ATOM     24  ND2 ASN A 142      -5.261  14.735  64.861  1.00 55.08    -0.370 N 
ATOM     25 2HD2 ASN A 142      -4.658  15.556  64.807  1.00  0.00     0.159 HD
ATOM     26 1HD2 ASN A 142      -5.104  14.014  65.567  1.00  0.00     0.159 HD
ATOM     27  OD1 ASN A 142      -7.006  13.548  64.098  1.00 51.97    -0.274 OA
ENDBRANCH  22  23
ENDBRANCH  21  22
END_RES ASN A 142
BEGIN_RES LEU A  27
REMARK  2 active torsions:
REMARK  status: ('A' for Active; 'I' for Inactive)
REMARK    9  A    between atoms: CA   and  CB  
REMARK   10  A    between atoms: CB   and  CG  
ROOT
ATOM     28  CA  LEU A  27     -11.471  23.771  64.549  1.00 37.04     0.177 C 
ENDROOT
BRANCH  28  29
ATOM     29  CB  LEU A  27     -12.225  22.902  65.570  1.00 37.70     0.038 C 
BRANCH  29  30
ATOM     30  CG  LEU A  27     -12.482  23.383  66.998  1.00 36.32    -0.020 C 
ATOM     31  CD1 LEU A  27     -13.839  24.058  67.125  1.00 32.79     0.009 C 
ATOM     32  CD2 LEU A  27     -12.387  22.201  67.952  1.00 31.17     0.009 C 
ENDBRANCH  29  30
ENDBRANCH  28  29
END_RES LEU A  27
BEGIN_RES MET A  49
REMARK  3 active torsions:
REMARK  status: ('A' for Active; 'I' for Inactive)
REMARK   11  A    between atoms: CA   and  CB  
REMARK   12  A    between atoms: CB   and  CG  
REMARK   13  A    between atoms: CG   and  SD  
ROOT
ATOM     33  CA  MET A  49      -9.418  15.600  76.823  1.00 61.58     0.177 C 
ENDROOT
BRANCH  33  34
ATOM     34  CB  MET A  49      -8.930  15.410  75.386  1.00 62.15     0.045 C 
BRANCH  34  35
ATOM     35  CG  MET A  49      -9.661  16.279  74.375  1.00 60.24     0.076 C 
BRANCH  35  36
ATOM     36  SD  MET A  49     -10.982  15.408  73.509  1.00 77.15    -0.173 SA
ATOM     37  CE  MET A  49     -12.361  15.709  74.613  1.00 60.34     0.089 C 
ENDBRANCH  35  36
ENDBRANCH  34  35
ENDBRANCH  33  34
END_RES MET A  49
BEGIN_RES GLU A 166
REMARK  3 active torsions:
REMARK  status: ('A' for Active; 'I' for Inactive)
REMARK   14  A    between atoms: CA   and  CB  
REMARK   15  A    between atoms: CB   and  CG  
REMARK   16  A    between atoms: CG   and  CD  
ROOT
ATOM     38  CA  GLU A 166     -14.746   9.219  66.167  1.00 28.52     0.177 C 
ENDROOT
BRANCH  38  39
ATOM     39  CB  GLU A 166     -13.578   9.064  65.189  1.00 29.90     0.045 C 
BRANCH  39  40
ATOM     40  CG  GLU A 166     -13.635   7.843  64.290  1.00 36.08     0.116 C 
BRANCH  40  41
ATOM     41  CD  GLU A 166     -12.458   7.786  63.335  1.00 45.17     0.172 C 
ATOM     42  OE2 GLU A 166     -11.904   6.683  63.140  1.00 40.54    -0.648 OA
ATOM     43  OE1 GLU A 166     -12.092   8.839  62.771  1.00 50.70    -0.648 OA
ENDBRANCH  40  41
ENDBRANCH  39  40
ENDBRANCH  38  39
END_RES GLU A 166
BEGIN_RES HIS A 163
REMARK  2 active torsions:
REMARK  status: ('A' for Active; 'I' for Inactive)
REMARK   17  A    between atoms: CA   and  CB  
REMARK   18  A    between atoms: CB   and  CG  
ROOT
ATOM     44  CA  HIS A 163     -19.055  16.637  64.100  1.00 27.27     0.182 C 
ENDROOT
BRANCH  44  45
ATOM     45  CB  HIS A 163     -18.129  16.377  62.914  1.00 26.00     0.093 C 
BRANCH  45  46
ATOM     46  CG  HIS A 163     -17.087  15.339  63.188  1.00 26.66     0.028 A 
ATOM     47  ND1 HIS A 163     -15.746  15.641  63.286  1.00 26.97    -0.354 N 
ATOM     48  CE1 HIS A 163     -15.064  14.535  63.524  1.00 30.44     0.180 A 
ATOM     49  HD1 HIS A 163     -15.343  16.573  63.190  1.00  0.00     0.166 HD
ATOM     50  NE2 HIS A 163     -15.915  13.526  63.579  1.00 30.00    -0.360 N 
ATOM     51  CD2 HIS A 163     -17.186  14.001  63.371  1.00 29.24     0.114 A 
ATOM     52  HE2 HIS A 163     -15.667  12.551  63.749  1.00  0.00     0.166 HD
ENDBRANCH  45  46
ENDBRANCH  44  45
END_RES HIS A 163
BEGIN_RES HIS A 172
REMARK  2 active torsions:
REMARK  status: ('A' for Active; 'I' for Inactive)
REMARK   19  A    between atoms: CA   and  CB  
REMARK   20  A    between atoms: CB   and  CG  
ROOT
ATOM     53  CA  HIS A 172     -18.444   9.111  64.049  1.00 29.85     0.182 C 
ENDROOT
BRANCH  53  54
ATOM     54  CB  HIS A 172     -18.188  10.085  62.898  1.00 26.76     0.093 C 
BRANCH  54  55
ATOM     55  CG  HIS A 172     -16.861   9.889  62.234  1.00 28.76     0.028 A 
ATOM     56  CD2 HIS A 172     -15.623  10.317  62.574  1.00 29.36     0.114 A 
ATOM     57  NE2 HIS A 172     -14.754   9.845  61.621  1.00 33.77    -0.360 N 
ATOM     58  CE1 HIS A 172     -15.434   9.147  60.728  1.00 32.44     0.180 A 
ATOM     59  HE2 HIS A 172     -13.747  10.007  61.604  1.00  0.00     0.166 HD
ATOM     60  ND1 HIS A 172     -16.709   9.155  61.077  1.00 29.32    -0.354 N 
ATOM     61  HD1 HIS A 172     -17.462   8.691  60.570  1.00  0.00     0.166 HD
ENDBRANCH  54  55
ENDBRANCH  53  54
END_RES HIS A 172
BEGIN_RES THR A  26
REMARK  2 active torsions:
REMARK  status: ('A' for Active; 'I' for Inactive)
REMARK   21  A    between atoms: CA   and  CB  
REMARK   22  A    between atoms: CB   and  OG1 
ROOT
ATOM     62  CA  THR A  26      -8.224  25.031  66.060  1.00 43.98     0.205 C 
ENDROOT
BRANCH  62  63
ATOM     63  CB  THR A  26      -7.184  25.490  65.034  1.00 45.90     0.146 C 
ATOM     64  CG2 THR A  26      -7.850  26.158  63.829  1.00 47.20     0.042 C 
BRANCH  63  65
ATOM     65  OG1 THR A  26      -6.268  26.403  65.647  1.00 50.51    -0.393 OA
ATOM     66  HG1 THR A  26      -5.389  26.041  65.627  1.00  0.00     0.210 HD
ENDBRANCH  63  65
ENDBRANCH  62  63
END_RES THR A  26
ENDMDL
