MODEL 1
REMARK VINA RESULT:      -7.9      0.000      0.000
REMARK  20 active torsions:
REMARK  status: ('A' for Active; 'I' for Inactive)
REMARK       I    between atoms: C41_31  and  N_1 
REMARK    1  A    between atoms: N_1  and  CA_3 
REMARK    2  A    between atoms: CA_3  and  C_4 
REMARK       I    between atoms: C_4  and  N_7 
REMARK    3  A    between atoms: N_7  and  CA_9 
REMARK    4  A    between atoms: CA_9  and  CB_12 
REMARK    5  A    between atoms: CA_9  and  C_10 
REMARK       I    between atoms: C_10  and  N_15 
REMARK    6  A    between atoms: N_15  and  CA_17 
REMARK    7  A    between atoms: CA_17  and  CB_20 
REMARK    8  A    between atoms: CA_17  and  C_18 
REMARK       I    between atoms: C_18  and  N5_33 
REMARK    9  A    between atoms: CB_20  and  CG_21 
REMARK   10  A    between atoms: C3_27  and  C41_31 
REMARK   11  A    between atoms: N5_33  and  C19_41 
REMARK   12  A    between atoms: O8_39  and  C29_49 
REMARK   13  A    between atoms: C19_41  and  C20_42 
REMARK   14  A    between atoms: C19_41  and  C25_45 
REMARK   15  A    between atoms: C20_42  and  C21_43 
REMARK   16  A    between atoms: C21_43  and  C22_44 
REMARK   17  A    between atoms: C22_44  and  O_51 
REMARK   18  A    between atoms: C25_45  and  C26_46 
REMARK   19  A    between atoms: C_50  and  O_51 
REMARK   20  A    between atoms: C_50  and  C6_57 
ROOT
ATOM      1  N   ALA C   2      -6.720  14.121  72.876  1.00 41.65    -0.343 N 
ATOM      2  HN  ALA C   2      -7.694  14.043  73.169  1.00  0.00     0.163 HD
HETATM    3  C41 02J C   1      -5.658  13.506  73.677  1.00 47.56     0.270 C 
HETATM    4  O42 02J C   1      -4.531  13.595  73.334  1.00 47.13    -0.266 OA
ENDROOT
BRANCH   1   5
ATOM      5  CA  ALA C   2      -6.375  14.841  71.662  1.00 42.30     0.172 C 
ATOM      6  CB  ALA C   2      -7.386  14.548  70.583  1.00 36.98     0.042 C 
BRANCH   5   7
ATOM      7  C   ALA C   2      -6.365  16.372  71.967  1.00 41.96     0.240 C 
ATOM      8  N   VAL C   3      -5.732  17.281  71.044  1.00 34.91    -0.346 N 
ATOM      9  HN  VAL C   3      -5.295  16.924  70.195  1.00  0.00     0.163 HD
ATOM     10  O   ALA C   2      -6.866  16.780  72.943  1.00 41.95    -0.271 OA
BRANCH   8  11
ATOM     11  CA  VAL C   3      -5.717  18.719  71.327  1.00 36.29     0.180 C 
BRANCH  11  12
ATOM     12  CB  VAL C   3      -4.418  19.347  70.743  1.00 37.53     0.009 C 
ATOM     13  CG1 VAL C   3      -3.893  18.532  69.520  1.00 40.26     0.012 C 
ATOM     14  CG2 VAL C   3      -4.640  20.848  70.370  1.00 43.10     0.012 C 
ENDBRANCH  11  12
BRANCH  11  15
ATOM     15  C   VAL C   3      -6.918  19.369  70.691  1.00 40.78     0.241 C 
ATOM     16  O   VAL C   3      -7.548  20.173  71.295  1.00 36.69    -0.271 OA
ATOM     17  N   LEU C   4      -7.314  18.990  69.286  1.00 37.32    -0.346 N 
ATOM     18  HN  LEU C   4      -6.765  18.299  68.774  1.00  0.00     0.163 HD
BRANCH  17  19
ATOM     19  CA  LEU C   4      -8.475  19.603  68.658  1.00 39.95     0.177 C 
BRANCH  19  20
ATOM     20  CB  LEU C   4      -8.027  20.351  67.412  1.00 41.97     0.038 C 
BRANCH  20  21
ATOM     21  CG  LEU C   4      -6.596  19.958  66.926  1.00 45.86    -0.020 C 
ATOM     22  CD1 LEU C   4      -6.630  19.127  65.603  1.00 43.70     0.009 C 
ATOM     23  CD2 LEU C   4      -5.713  21.198  66.767  1.00 43.98     0.009 C 
ENDBRANCH  20  21
ENDBRANCH  19  20
BRANCH  19  24
ATOM     24  C   LEU C   4      -9.476  18.481  68.263  1.00 38.38     0.240 C 
HETATM   25  N5  PJE C   5      -9.686  17.309  69.161  1.00 34.60    -0.355 N 
HETATM   26  H5  PJE C   5      -9.173  17.238  70.039  1.00  0.00     0.162 HD
ATOM     27  O   LEU C   4     -10.072  18.554  67.238  1.00 44.55    -0.271 OA
BRANCH  25  28
HETATM   28  C19 PJE C   5     -10.641  16.249  68.770  1.00 40.54     0.085 C 
BRANCH  28  29
HETATM   29  C20 PJE C   5     -11.103  15.513  70.007  1.00 36.98     0.035 C 
BRANCH  29  30
HETATM   30  C21 PJE C   5     -12.541  15.889  70.426  1.00 45.43     0.113 C 
BRANCH  30  31
HETATM   31  C22 PJE C   5     -12.944  15.358  71.830  1.00 52.38     0.259 C 
HETATM   32  O7  PJE C   5     -13.700  15.970  72.512  1.00 57.27    -0.265 OA
BRANCH  31  33
HETATM   33  O   010 C   6     -12.388  14.135  72.298  1.00 52.13    -0.317 OA
BRANCH  33  34
HETATM   34  C   010 C   6     -13.304  13.037  72.287  1.00 63.14     0.217 C 
BRANCH  34  35
HETATM   35  C6  010 C   6     -12.627  11.855  71.543  1.00 66.95    -0.034 A 
HETATM   36  C1  010 C   6     -13.047  10.550  71.780  1.00 68.45     0.009 A 
HETATM   37  C2  010 C   6     -12.439   9.488  71.112  1.00 70.02     0.001 A 
HETATM   38  C3  010 C   6     -11.404   9.735  70.206  1.00 58.91     0.000 A 
HETATM   39  C4  010 C   6     -10.986  11.039  69.976  1.00 57.63     0.001 A 
HETATM   40  C5  010 C   6     -11.592  12.103  70.639  1.00 62.65     0.009 A 
ENDBRANCH  34  35
ENDBRANCH  33  34
ENDBRANCH  31  33
ENDBRANCH  30  31
ENDBRANCH  29  30
ENDBRANCH  28  29
BRANCH  28  41
HETATM   41  C25 PJE C   5      -9.962  15.267  67.817  1.00 30.76     0.034 C 
BRANCH  41  42
HETATM   42  C26 PJE C   5     -10.982  14.709  66.716  1.00 34.19     0.045 C 
HETATM   43  C27 PJE C   5     -10.865  13.071  66.623  1.00 40.55     0.036 C 
HETATM   44  C28 PJE C   5     -10.689  12.719  65.326  1.00 39.60     0.236 C 
HETATM   45  N6  PJE C   5     -10.350  13.980  64.569  1.00 35.08    -0.049 N 
HETATM   46  C29 PJE C   5     -10.730  15.204  65.550  1.00 34.70     0.322 C 
HETATM   47  H62 PJE C   5      -9.385  14.008  64.237  1.00  0.00     0.280 HD
HETATM   48  H61 PJE C   5     -10.797  14.038  63.654  1.00  0.00     0.280 HD
BRANCH  46  49
HETATM   49  O8  PJE C   5      -9.664  16.155  65.588  1.00 31.54    -0.369 OA
HETATM   50  H8  PJE C   5      -8.833  15.723  65.424  1.00  0.00     0.212 HD
ENDBRANCH  46  49
ENDBRANCH  41  42
ENDBRANCH  28  41
ENDBRANCH  25  28
ENDBRANCH  19  24
ENDBRANCH  17  19
ENDBRANCH  11  15
ENDBRANCH   8  11
ENDBRANCH   5   7
ENDBRANCH   1   5
BRANCH   3  51
HETATM   51  C3  02J C   1      -6.008  12.743  74.964  1.00 50.26     0.124 A 
HETATM   52  N2  02J C   1      -7.204  12.676  75.557  1.00 56.79    -0.256 N 
HETATM   53  O1  02J C   1      -7.132  11.935  76.639  1.00 63.01    -0.242 OA
HETATM   54  H2  02J C   1      -8.049  13.134  75.219  1.00  0.00     0.195 HD
HETATM   55  C5  02J C   1      -5.930  11.477  76.828  1.00 63.03     0.075 A 
HETATM   56  C4  02J C   1      -5.124  11.961  75.773  1.00 54.38     0.071 A 
HETATM   57  C6  02J C   1      -5.472  10.586  77.975  1.00 64.36     0.079 C 
ENDBRANCH   3  51
TORSDOF 20
BEGIN_RES HIS A  41
REMARK  2 active torsions:
REMARK  status: ('A' for Active; 'I' for Inactive)
REMARK    1  A    between atoms: CA   and  CB  
REMARK    2  A    between atoms: CB   and  CG  
ROOT
ATOM      1  CA  HIS A  41     -13.820  21.037  73.265  1.00 38.89     0.182 C 
ENDROOT
BRANCH   1   2
ATOM      2  CB  HIS A  41     -13.705  19.545  72.937  1.00 42.38     0.093 C 
BRANCH   2   3
ATOM      3  CG  HIS A  41     -14.087  19.199  71.532  1.00 37.90     0.028 A 
ATOM      4  CD2 HIS A  41     -13.489  19.477  70.349  1.00 37.33     0.114 A 
ATOM      5  NE2 HIS A  41     -14.262  18.914  69.363  1.00 41.88    -0.360 N 
ATOM      6  CE1 HIS A  41     -15.294  18.306  69.921  1.00 41.55     0.180 A 
ATOM      7  HE2 HIS A  41     -14.070  18.958  68.362  1.00  0.00     0.166 HD
ATOM      8  ND1 HIS A  41     -15.211  18.461  71.230  1.00 36.57    -0.354 N 
ATOM      9  HD1 HIS A  41     -15.875  18.091  71.911  1.00  0.00     0.166 HD
ENDBRANCH   2   3
ENDBRANCH   1   2
END_RES HIS A  41
BEGIN_RES CYS A 145
REMARK  1 active torsions:
REMARK  status: ('A' for Active; 'I' for Inactive)
REMARK    3  A    between atoms: CA   and  CB  
ROOT
ATOM     10  CA  CYS A 145     -14.607  19.162  64.101  1.00 29.71     0.186 C 
ENDROOT
BRANCH  10  11
ATOM     11  CB  CYS A 145     -14.100  19.110  65.541  1.00 31.75     0.120 C 
ATOM     12  SG  CYS A 145     -13.596  17.463  66.071  1.00 39.68    -0.095 SA
ENDBRANCH  10  11
END_RES CYS A 145
BEGIN_RES GLN A 189
REMARK  3 active torsions:
REMARK  status: ('A' for Active; 'I' for Inactive)
REMARK    4  A    between atoms: CA   and  CB  
REMARK    5  A    between atoms: CB   and  CG  
REMARK    6  A    between atoms: CG   and  CD  
REMARK       I    between atoms: CD   and  NE2 
ROOT
ATOM     13  CA  GLN A 189     -11.641  10.633  75.105  1.00 38.41     0.177 C 
ENDROOT
BRANCH  13  14
ATOM     14  CB  GLN A 189     -10.259  11.109  74.679  1.00 37.59     0.044 C 
BRANCH  14  15
ATOM     15  CG  GLN A 189      -9.686  10.335  73.503  1.00 45.60     0.105 C 
BRANCH  15  16
ATOM     16  CD  GLN A 189      -8.274   9.846  73.755  1.00 47.27     0.215 C 
ATOM     17  NE2 GLN A 189      -8.043   9.286  74.937  1.00 44.45    -0.370 N 
ATOM     18 2HE2 GLN A 189      -8.766   9.183  75.649  1.00  0.00     0.159 HD
ATOM     19 1HE2 GLN A 189      -7.092   8.957  75.108  1.00  0.00     0.159 HD
ATOM     20  OE1 GLN A 189      -7.401   9.971  72.896  1.00 41.09    -0.274 OA
ENDBRANCH  15  16
ENDBRANCH  14  15
ENDBRANCH  13  14
END_RES GLN A 189
BEGIN_RES ASN A 142
REMARK  2 active torsions:
REMARK  status: ('A' for Active; 'I' for Inactive)
REMARK    7  A    between atoms: CA   and  CB  
REMARK    8  A    between atoms: CB   and  CG  
REMARK       I    between atoms: CG   and  ND2 
ROOT
ATOM     21  CA  ASN A 142      -7.978  15.712  62.559  1.00 43.18     0.185 C 
ENDROOT
BRANCH  21  22
ATOM     22  CB  ASN A 142      -6.512  15.609  62.983  1.00 38.76     0.137 C 
BRANCH  22  23
ATOM     23  CG  ASN A 142      -6.342  14.988  64.356  1.00 50.71     0.217 C 
ATOM     24  ND2 ASN A 142      -5.100  14.915  64.823  1.00 55.08    -0.370 N 
ATOM     25 2HD2 ASN A 142      -4.295  15.254  64.296  1.00  0.00     0.159 HD
ATOM     26 1HD2 ASN A 142      -4.985  14.497  65.746  1.00  0.00     0.159 HD
ATOM     27  OD1 ASN A 142      -7.313  14.579  64.992  1.00 51.97    -0.274 OA
ENDBRANCH  22  23
ENDBRANCH  21  22
END_RES ASN A 142
BEGIN_RES LEU A  27
REMARK  2 active torsions:
REMARK  status: ('A' for Active; 'I' for Inactive)
REMARK    9  A    between atoms: CA   and  CB  
REMARK   10  A    between atoms: CB   and  CG  
ROOT
ATOM     28  CA  LEU A  27     -11.471  23.771  64.549  1.00 37.04     0.177 C 
ENDROOT
BRANCH  28  29
ATOM     29  CB  LEU A  27     -12.225  22.902  65.570  1.00 37.70     0.038 C 
BRANCH  29  30
ATOM     30  CG  LEU A  27     -12.621  23.441  66.945  1.00 36.32    -0.020 C 
ATOM     31  CD1 LEU A  27     -13.748  24.456  66.844  1.00 32.79     0.009 C 
ATOM     32  CD2 LEU A  27     -13.031  22.281  67.840  1.00 31.17     0.009 C 
ENDBRANCH  29  30
ENDBRANCH  28  29
END_RES LEU A  27
BEGIN_RES MET A  49
REMARK  3 active torsions:
REMARK  status: ('A' for Active; 'I' for Inactive)
REMARK   11  A    between atoms: CA   and  CB  
REMARK   12  A    between atoms: CB   and  CG  
REMARK   13  A    between atoms: CG   and  SD  
ROOT
ATOM     33  CA  MET A  49      -9.418  15.600  76.823  1.00 61.58     0.177 C 
ENDROOT
BRANCH  33  34
ATOM     34  CB  MET A  49      -8.930  15.410  75.386  1.00 62.15     0.045 C 
BRANCH  34  35
ATOM     35  CG  MET A  49     -10.018  15.605  74.342  1.00 60.24     0.076 C 
BRANCH  35  36
ATOM     36  SD  MET A  49     -10.838  17.207  74.457  1.00 77.15    -0.173 SA
ATOM     37  CE  MET A  49     -10.343  17.949  72.903  1.00 60.34     0.089 C 
ENDBRANCH  35  36
ENDBRANCH  34  35
ENDBRANCH  33  34
END_RES MET A  49
BEGIN_RES GLU A 166
REMARK  3 active torsions:
REMARK  status: ('A' for Active; 'I' for Inactive)
REMARK   14  A    between atoms: CA   and  CB  
REMARK   15  A    between atoms: CB   and  CG  
REMARK   16  A    between atoms: CG   and  CD  
ROOT
ATOM     38  CA  GLU A 166     -14.746   9.219  66.167  1.00 28.52     0.177 C 
ENDROOT
BRANCH  38  39
ATOM     39  CB  GLU A 166     -13.578   9.064  65.189  1.00 29.90     0.045 C 
BRANCH  39  40
ATOM     40  CG  GLU A 166     -13.705   7.926  64.194  1.00 36.08     0.116 C 
BRANCH  40  41
ATOM     41  CD  GLU A 166     -12.413   7.689  63.435  1.00 45.17     0.172 C 
ATOM     42  OE2 GLU A 166     -12.209   8.340  62.389  1.00 40.54    -0.648 OA
ATOM     43  OE1 GLU A 166     -11.595   6.859  63.890  1.00 50.70    -0.648 OA
ENDBRANCH  40  41
ENDBRANCH  39  40
ENDBRANCH  38  39
END_RES GLU A 166
BEGIN_RES HIS A 163
REMARK  2 active torsions:
REMARK  status: ('A' for Active; 'I' for Inactive)
REMARK   17  A    between atoms: CA   and  CB  
REMARK   18  A    between atoms: CB   and  CG  
ROOT
ATOM     44  CA  HIS A 163     -19.055  16.637  64.100  1.00 27.27     0.182 C 
ENDROOT
BRANCH  44  45
ATOM     45  CB  HIS A 163     -18.129  16.377  62.914  1.00 26.00     0.093 C 
BRANCH  45  46
ATOM     46  CG  HIS A 163     -17.086  15.340  63.188  1.00 26.66     0.028 A 
ATOM     47  ND1 HIS A 163     -15.746  15.644  63.291  1.00 26.97    -0.354 N 
ATOM     48  CE1 HIS A 163     -15.063  14.538  63.529  1.00 30.44     0.180 A 
ATOM     49  HD1 HIS A 163     -15.344  16.577  63.199  1.00  0.00     0.166 HD
ATOM     50  NE2 HIS A 163     -15.912  13.527  63.578  1.00 30.00    -0.360 N 
ATOM     51  CD2 HIS A 163     -17.184  14.002  63.367  1.00 29.24     0.114 A 
ATOM     52  HE2 HIS A 163     -15.664  12.552  63.746  1.00  0.00     0.166 HD
ENDBRANCH  45  46
ENDBRANCH  44  45
END_RES HIS A 163
BEGIN_RES HIS A 172
REMARK  2 active torsions:
REMARK  status: ('A' for Active; 'I' for Inactive)
REMARK   19  A    between atoms: CA   and  CB  
REMARK   20  A    between atoms: CB   and  CG  
ROOT
ATOM     53  CA  HIS A 172     -18.444   9.111  64.049  1.00 29.85     0.182 C 
ENDROOT
BRANCH  53  54
ATOM     54  CB  HIS A 172     -18.188  10.085  62.898  1.00 26.76     0.093 C 
BRANCH  54  55
ATOM     55  CG  HIS A 172     -16.858   9.894  62.239  1.00 28.76     0.028 A 
ATOM     56  CD2 HIS A 172     -15.624  10.337  62.577  1.00 29.36     0.114 A 
ATOM     57  NE2 HIS A 172     -14.749   9.862  61.630  1.00 33.77    -0.360 N 
ATOM     58  CE1 HIS A 172     -15.422   9.149  60.744  1.00 32.44     0.180 A 
ATOM     59  HE2 HIS A 172     -13.744  10.033  61.614  1.00  0.00     0.166 HD
ATOM     60  ND1 HIS A 172     -16.697   9.149  61.090  1.00 29.32    -0.354 N 
ATOM     61  HD1 HIS A 172     -17.445   8.673  60.586  1.00  0.00     0.166 HD
ENDBRANCH  54  55
ENDBRANCH  53  54
END_RES HIS A 172
BEGIN_RES THR A  26
REMARK  2 active torsions:
REMARK  status: ('A' for Active; 'I' for Inactive)
REMARK   21  A    between atoms: CA   and  CB  
REMARK   22  A    between atoms: CB   and  OG1 
ROOT
ATOM     62  CA  THR A  26      -8.224  25.031  66.060  1.00 43.98     0.205 C 
ENDROOT
BRANCH  62  63
ATOM     63  CB  THR A  26      -7.184  25.490  65.034  1.00 45.90     0.146 C 
ATOM     64  CG2 THR A  26      -7.851  25.972  63.744  1.00 47.20     0.042 C 
BRANCH  63  65
ATOM     65  OG1 THR A  26      -6.388  26.543  65.588  1.00 50.51    -0.393 OA
ATOM     66  HG1 THR A  26      -6.652  26.709  66.486  1.00  0.00     0.210 HD
ENDBRANCH  63  65
ENDBRANCH  62  63
END_RES THR A  26
ENDMDL
MODEL 2
REMARK VINA RESULT:      -7.7      2.033      5.409
REMARK  20 active torsions:
REMARK  status: ('A' for Active; 'I' for Inactive)
REMARK       I    between atoms: C41_31  and  N_1 
REMARK    1  A    between atoms: N_1  and  CA_3 
REMARK    2  A    between atoms: CA_3  and  C_4 
REMARK       I    between atoms: C_4  and  N_7 
REMARK    3  A    between atoms: N_7  and  CA_9 
REMARK    4  A    between atoms: CA_9  and  CB_12 
REMARK    5  A    between atoms: CA_9  and  C_10 
REMARK       I    between atoms: C_10  and  N_15 
REMARK    6  A    between atoms: N_15  and  CA_17 
REMARK    7  A    between atoms: CA_17  and  CB_20 
REMARK    8  A    between atoms: CA_17  and  C_18 
REMARK       I    between atoms: C_18  and  N5_33 
REMARK    9  A    between atoms: CB_20  and  CG_21 
REMARK   10  A    between atoms: C3_27  and  C41_31 
REMARK   11  A    between atoms: N5_33  and  C19_41 
REMARK   12  A    between atoms: O8_39  and  C29_49 
REMARK   13  A    between atoms: C19_41  and  C20_42 
REMARK   14  A    between atoms: C19_41  and  C25_45 
REMARK   15  A    between atoms: C20_42  and  C21_43 
REMARK   16  A    between atoms: C21_43  and  C22_44 
REMARK   17  A    between atoms: C22_44  and  O_51 
REMARK   18  A    between atoms: C25_45  and  C26_46 
REMARK   19  A    between atoms: C_50  and  O_51 
REMARK   20  A    between atoms: C_50  and  C6_57 
ROOT
ATOM      1  N   ALA C   2     -10.300  13.799  66.783  1.00 41.65    -0.343 N 
ATOM      2  HN  ALA C   2     -10.812  14.291  67.515  1.00  0.00     0.163 HD
HETATM    3  C41 02J C   1     -10.025  12.366  66.911  1.00 47.56     0.270 C 
HETATM    4  O42 02J C   1      -9.434  11.798  66.060  1.00 47.13    -0.266 OA
ENDROOT
BRANCH   1   5
ATOM      5  CA  ALA C   2      -9.838  14.514  65.606  1.00 42.30     0.172 C 
ATOM      6  CB  ALA C   2     -10.818  14.335  64.475  1.00 36.98     0.042 C 
BRANCH   5   7
ATOM      7  C   ALA C   2      -9.710  16.030  65.952  1.00 41.96     0.240 C 
ATOM      8  N   VAL C   3      -9.013  16.434  67.148  1.00 34.91    -0.346 N 
ATOM      9  HN  VAL C   3      -8.603  15.731  67.763  1.00  0.00     0.163 HD
ATOM     10  O   ALA C   2     -10.182  16.836  65.247  1.00 41.95    -0.271 OA
BRANCH   8  11
ATOM     11  CA  VAL C   3      -8.892  17.857  67.480  1.00 36.29     0.180 C 
BRANCH  11  12
ATOM     12  CB  VAL C   3     -10.218  18.348  68.132  1.00 37.53     0.009 C 
ATOM     13  CG1 VAL C   3     -10.057  18.538  69.673  1.00 40.26     0.012 C 
ATOM     14  CG2 VAL C   3     -10.725  19.660  67.450  1.00 43.10     0.012 C 
ENDBRANCH  11  12
BRANCH  11  15
ATOM     15  C   VAL C   3      -7.754  18.053  68.447  1.00 40.78     0.241 C 
ATOM     16  O   VAL C   3      -7.070  19.020  68.370  1.00 36.69    -0.271 OA
ATOM     17  N   LEU C   4      -7.491  17.015  69.508  1.00 37.32    -0.346 N 
ATOM     18  HN  LEU C   4      -8.086  16.188  69.568  1.00  0.00     0.163 HD
BRANCH  17  19
ATOM     19  CA  LEU C   4      -6.392  17.186  70.447  1.00 39.95     0.177 C 
BRANCH  19  20
ATOM     20  CB  LEU C   4      -6.946  17.194  71.863  1.00 41.97     0.038 C 
BRANCH  20  21
ATOM     21  CG  LEU C   4      -7.040  18.621  72.491  1.00 45.86    -0.020 C 
ATOM     22  CD1 LEU C   4      -6.311  19.696  71.623  1.00 43.70     0.009 C 
ATOM     23  CD2 LEU C   4      -8.498  19.015  72.736  1.00 43.98     0.009 C 
ENDBRANCH  20  21
ENDBRANCH  19  20
BRANCH  19  24
ATOM     24  C   LEU C   4      -5.406  15.994  70.278  1.00 38.38     0.240 C 
HETATM   25  N5  PJE C   5      -5.728  14.661  70.862  1.00 34.60    -0.355 N 
HETATM   26  H5  PJE C   5      -6.599  14.523  71.375  1.00  0.00     0.162 HD
ATOM     27  O   LEU C   4      -4.387  16.150  69.687  1.00 44.55    -0.271 OA
BRANCH  25  28
HETATM   28  C19 PJE C   5      -4.780  13.539  70.693  1.00 40.54     0.085 C 
BRANCH  28  29
HETATM   29  C20 PJE C   5      -5.255  12.647  69.568  1.00 36.98     0.035 C 
BRANCH  29  30
HETATM   30  C21 PJE C   5      -6.794  12.560  69.482  1.00 45.43     0.113 C 
BRANCH  30  31
HETATM   31  C22 PJE C   5      -7.450  13.765  68.753  1.00 52.38     0.259 C 
HETATM   32  O7  PJE C   5      -7.002  14.167  67.729  1.00 57.27    -0.265 OA
BRANCH  31  33
HETATM   33  O   010 C   6      -8.588  14.393  69.331  1.00 52.13    -0.317 OA
BRANCH  33  34
HETATM   34  C   010 C   6      -8.972  13.852  70.598  1.00 63.14     0.217 C 
BRANCH  34  35
HETATM   35  C6  010 C   6     -10.471  14.182  70.826  1.00 66.95    -0.034 A 
HETATM   36  C1  010 C   6     -11.170  13.567  71.860  1.00 68.45     0.009 A 
HETATM   37  C2  010 C   6     -12.517  13.863  72.064  1.00 70.02     0.001 A 
HETATM   38  C3  010 C   6     -13.166  14.776  71.229  1.00 58.91     0.000 A 
HETATM   39  C4  010 C   6     -12.464  15.385  70.197  1.00 57.63     0.001 A 
HETATM   40  C5  010 C   6     -11.118  15.094  69.990  1.00 62.65     0.009 A 
ENDBRANCH  34  35
ENDBRANCH  33  34
ENDBRANCH  31  33
ENDBRANCH  30  31
ENDBRANCH  29  30
ENDBRANCH  28  29
BRANCH  28  41
HETATM   41  C25 PJE C   5      -4.702  12.730  71.987  1.00 30.76     0.034 C 
BRANCH  41  42
HETATM   42  C26 PJE C   5      -6.027  12.898  72.872  1.00 34.19     0.045 C 
HETATM   43  C27 PJE C   5      -5.647  13.562  74.328  1.00 40.55     0.036 C 
HETATM   44  C28 PJE C   5      -6.179  12.796  75.309  1.00 39.60     0.236 C 
HETATM   45  N6  PJE C   5      -6.607  11.496  74.671  1.00 35.08    -0.049 N 
HETATM   46  C29 PJE C   5      -6.599  11.759  73.078  1.00 34.70     0.322 C 
HETATM   47  H62 PJE C   5      -6.040  10.697  74.955  1.00  0.00     0.280 HD
HETATM   48  H61 PJE C   5      -7.499  11.145  75.021  1.00  0.00     0.280 HD
BRANCH  46  49
HETATM   49  O8  PJE C   5      -5.930  10.691  72.406  1.00 31.54    -0.369 OA
HETATM   50  H8  PJE C   5      -5.835   9.945  72.987  1.00  0.00     0.212 HD
ENDBRANCH  46  49
ENDBRANCH  41  42
ENDBRANCH  28  41
ENDBRANCH  25  28
ENDBRANCH  19  24
ENDBRANCH  17  19
ENDBRANCH  11  15
ENDBRANCH   8  11
ENDBRANCH   5   7
ENDBRANCH   1   5
BRANCH   3  51
HETATM   51  C3  02J C   1     -10.506  11.597  68.151  1.00 50.26     0.124 A 
HETATM   52  N2  02J C   1      -9.778  10.790  68.928  1.00 56.79    -0.256 N 
HETATM   53  O1  02J C   1     -10.518  10.303  69.897  1.00 63.01    -0.242 OA
HETATM   54  H2  02J C   1      -8.790  10.582  68.788  1.00  0.00     0.195 HD
HETATM   55  C5  02J C   1     -11.742  10.739  69.831  1.00 63.03     0.075 A 
HETATM   56  C4  02J C   1     -11.823  11.596  68.711  1.00 54.38     0.071 A 
HETATM   57  C6  02J C   1     -12.878  10.390  70.784  1.00 64.36     0.079 C 
ENDBRANCH   3  51
TORSDOF 20
BEGIN_RES HIS A  41
REMARK  2 active torsions:
REMARK  status: ('A' for Active; 'I' for Inactive)
REMARK    1  A    between atoms: CA   and  CB  
REMARK    2  A    between atoms: CB   and  CG  
ROOT
ATOM      1  CA  HIS A  41     -13.820  21.037  73.265  1.00 38.89     0.182 C 
ENDROOT
BRANCH   1   2
ATOM      2  CB  HIS A  41     -13.705  19.545  72.937  1.00 42.38     0.093 C 
BRANCH   2   3
ATOM      3  CG  HIS A  41     -14.072  19.201  71.528  1.00 37.90     0.028 A 
ATOM      4  CD2 HIS A  41     -15.117  18.506  71.021  1.00 37.33     0.114 A 
ATOM      5  NE2 HIS A  41     -14.971  18.495  69.655  1.00 41.88    -0.360 N 
ATOM      6  CE1 HIS A  41     -13.879  19.165  69.334  1.00 41.55     0.180 A 
ATOM      7  HE2 HIS A  41     -15.604  18.042  68.995  1.00  0.00     0.166 HD
ATOM      8  ND1 HIS A  41     -13.318  19.605  70.446  1.00 36.57    -0.354 N 
ATOM      9  HD1 HIS A  41     -12.462  20.156  70.497  1.00  0.00     0.166 HD
ENDBRANCH   2   3
ENDBRANCH   1   2
END_RES HIS A  41
BEGIN_RES CYS A 145
REMARK  1 active torsions:
REMARK  status: ('A' for Active; 'I' for Inactive)
REMARK    3  A    between atoms: CA   and  CB  
ROOT
ATOM     10  CA  CYS A 145     -14.607  19.162  64.101  1.00 29.71     0.186 C 
ENDROOT
BRANCH  10  11
ATOM     11  CB  CYS A 145     -14.100  19.110  65.541  1.00 31.75     0.120 C 
ATOM     12  SG  CYS A 145     -13.631  17.457  66.083  1.00 39.68    -0.095 SA
ENDBRANCH  10  11
END_RES CYS A 145
BEGIN_RES GLN A 189
REMARK  3 active torsions:
REMARK  status: ('A' for Active; 'I' for Inactive)
REMARK    4  A    between atoms: CA   and  CB  
REMARK    5  A    between atoms: CB   and  CG  
REMARK    6  A    between atoms: CG   and  CD  
REMARK       I    between atoms: CD   and  NE2 
ROOT
ATOM     13  CA  GLN A 189     -11.641  10.633  75.105  1.00 38.41     0.177 C 
ENDROOT
BRANCH  13  14
ATOM     14  CB  GLN A 189     -10.259  11.109  74.679  1.00 37.59     0.044 C 
BRANCH  14  15
ATOM     15  CG  GLN A 189      -9.901  10.733  73.250  1.00 45.60     0.105 C 
BRANCH  15  16
ATOM     16  CD  GLN A 189      -9.358   9.323  73.134  1.00 47.27     0.215 C 
ATOM     17  NE2 GLN A 189     -10.045   8.484  72.367  1.00 44.45    -0.370 N 
ATOM     18 2HE2 GLN A 189     -10.896   8.759  71.876  1.00  0.00     0.159 HD
ATOM     19 1HE2 GLN A 189      -9.680   7.535  72.289  1.00  0.00     0.159 HD
ATOM     20  OE1 GLN A 189      -8.331   8.992  73.727  1.00 41.09    -0.274 OA
ENDBRANCH  15  16
ENDBRANCH  14  15
ENDBRANCH  13  14
END_RES GLN A 189
BEGIN_RES ASN A 142
REMARK  2 active torsions:
REMARK  status: ('A' for Active; 'I' for Inactive)
REMARK    7  A    between atoms: CA   and  CB  
REMARK    8  A    between atoms: CB   and  CG  
REMARK       I    between atoms: CG   and  ND2 
ROOT
ATOM     21  CA  ASN A 142      -7.978  15.712  62.559  1.00 43.18     0.185 C 
ENDROOT
BRANCH  21  22
ATOM     22  CB  ASN A 142      -6.512  15.609  62.983  1.00 38.76     0.137 C 
BRANCH  22  23
ATOM     23  CG  ASN A 142      -6.331  15.678  64.488  1.00 50.71     0.217 C 
ATOM     24  ND2 ASN A 142      -5.901  14.572  65.083  1.00 55.08    -0.370 N 
ATOM     25 2HD2 ASN A 142      -5.700  13.714  64.568  1.00  0.00     0.159 HD
ATOM     26 1HD2 ASN A 142      -5.779  14.618  66.095  1.00  0.00     0.159 HD
ATOM     27  OD1 ASN A 142      -6.573  16.713  65.108  1.00 51.97    -0.274 OA
ENDBRANCH  22  23
ENDBRANCH  21  22
END_RES ASN A 142
BEGIN_RES LEU A  27
REMARK  2 active torsions:
REMARK  status: ('A' for Active; 'I' for Inactive)
REMARK    9  A    between atoms: CA   and  CB  
REMARK   10  A    between atoms: CB   and  CG  
ROOT
ATOM     28  CA  LEU A  27     -11.471  23.771  64.549  1.00 37.04     0.177 C 
ENDROOT
BRANCH  28  29
ATOM     29  CB  LEU A  27     -12.225  22.902  65.570  1.00 37.70     0.038 C 
BRANCH  29  30
ATOM     30  CG  LEU A  27     -12.613  23.438  66.948  1.00 36.32    -0.020 C 
ATOM     31  CD1 LEU A  27     -13.709  24.486  66.853  1.00 32.79     0.009 C 
ATOM     32  CD2 LEU A  27     -13.061  22.281  67.830  1.00 31.17     0.009 C 
ENDBRANCH  29  30
ENDBRANCH  28  29
END_RES LEU A  27
BEGIN_RES MET A  49
REMARK  3 active torsions:
REMARK  status: ('A' for Active; 'I' for Inactive)
REMARK   11  A    between atoms: CA   and  CB  
REMARK   12  A    between atoms: CB   and  CG  
REMARK   13  A    between atoms: CG   and  SD  
ROOT
ATOM     33  CA  MET A  49      -9.418  15.600  76.823  1.00 61.58     0.177 C 
ENDROOT
BRANCH  33  34
ATOM     34  CB  MET A  49      -8.930  15.410  75.386  1.00 62.15     0.045 C 
BRANCH  34  35
ATOM     35  CG  MET A  49      -9.849  16.028  74.344  1.00 60.24     0.076 C 
BRANCH  35  36
ATOM     36  SD  MET A  49     -11.172  17.023  75.059  1.00 77.15    -0.173 SA
ATOM     37  CE  MET A  49     -12.598  16.008  74.678  1.00 60.34     0.089 C 
ENDBRANCH  35  36
ENDBRANCH  34  35
ENDBRANCH  33  34
END_RES MET A  49
BEGIN_RES GLU A 166
REMARK  3 active torsions:
REMARK  status: ('A' for Active; 'I' for Inactive)
REMARK   14  A    between atoms: CA   and  CB  
REMARK   15  A    between atoms: CB   and  CG  
REMARK   16  A    between atoms: CG   and  CD  
ROOT
ATOM     38  CA  GLU A 166     -14.746   9.219  66.167  1.00 28.52     0.177 C 
ENDROOT
BRANCH  38  39
ATOM     39  CB  GLU A 166     -13.578   9.064  65.189  1.00 29.90     0.045 C 
BRANCH  39  40
ATOM     40  CG  GLU A 166     -12.430  10.036  65.383  1.00 36.08     0.116 C 
BRANCH  40  41
ATOM     41  CD  GLU A 166     -12.367  11.069  64.274  1.00 45.17     0.172 C 
ATOM     42  OE2 GLU A 166     -13.226  11.976  64.257  1.00 40.54    -0.648 OA
ATOM     43  OE1 GLU A 166     -11.454  10.982  63.425  1.00 50.70    -0.648 OA
ENDBRANCH  40  41
ENDBRANCH  39  40
ENDBRANCH  38  39
END_RES GLU A 166
BEGIN_RES HIS A 163
REMARK  2 active torsions:
REMARK  status: ('A' for Active; 'I' for Inactive)
REMARK   17  A    between atoms: CA   and  CB  
REMARK   18  A    between atoms: CB   and  CG  
ROOT
ATOM     44  CA  HIS A 163     -19.055  16.637  64.100  1.00 27.27     0.182 C 
ENDROOT
BRANCH  44  45
ATOM     45  CB  HIS A 163     -18.129  16.377  62.914  1.00 26.00     0.093 C 
BRANCH  45  46
ATOM     46  CG  HIS A 163     -17.079  15.348  63.192  1.00 26.66     0.028 A 
ATOM     47  ND1 HIS A 163     -15.742  15.663  63.301  1.00 26.97    -0.354 N 
ATOM     48  CE1 HIS A 163     -15.051  14.562  63.541  1.00 30.44     0.180 A 
ATOM     49  HD1 HIS A 163     -15.347  16.599  63.211  1.00  0.00     0.166 HD
ATOM     50  NE2 HIS A 163     -15.893  13.545  63.586  1.00 30.00    -0.360 N 
ATOM     51  CD2 HIS A 163     -17.167  14.009  63.370  1.00 29.24     0.114 A 
ATOM     52  HE2 HIS A 163     -15.637  12.572  63.754  1.00  0.00     0.166 HD
ENDBRANCH  45  46
ENDBRANCH  44  45
END_RES HIS A 163
BEGIN_RES HIS A 172
REMARK  2 active torsions:
REMARK  status: ('A' for Active; 'I' for Inactive)
REMARK   19  A    between atoms: CA   and  CB  
REMARK   20  A    between atoms: CB   and  CG  
ROOT
ATOM     53  CA  HIS A 172     -18.444   9.111  64.049  1.00 29.85     0.182 C 
ENDROOT
BRANCH  53  54
ATOM     54  CB  HIS A 172     -18.188  10.085  62.898  1.00 26.76     0.093 C 
BRANCH  54  55
ATOM     55  CG  HIS A 172     -16.878   9.865  62.209  1.00 28.76     0.028 A 
ATOM     56  CD2 HIS A 172     -15.613  10.177  62.579  1.00 29.36     0.114 A 
ATOM     57  NE2 HIS A 172     -14.778   9.739  61.579  1.00 33.77    -0.360 N 
ATOM     58  CE1 HIS A 172     -15.505   9.172  60.632  1.00 32.44     0.180 A 
ATOM     59  HE2 HIS A 172     -13.763   9.836  61.571  1.00  0.00     0.166 HD
ATOM     60  ND1 HIS A 172     -16.775   9.231  60.989  1.00 29.32    -0.354 N 
ATOM     61  HD1 HIS A 172     -17.559   8.866  60.447  1.00  0.00     0.166 HD
ENDBRANCH  54  55
ENDBRANCH  53  54
END_RES HIS A 172
BEGIN_RES THR A  26
REMARK  2 active torsions:
REMARK  status: ('A' for Active; 'I' for Inactive)
REMARK   21  A    between atoms: CA   and  CB  
REMARK   22  A    between atoms: CB   and  OG1 
ROOT
ATOM     62  CA  THR A  26      -8.224  25.031  66.060  1.00 43.98     0.205 C 
ENDROOT
BRANCH  62  63
ATOM     63  CB  THR A  26      -7.184  25.490  65.034  1.00 45.90     0.146 C 
ATOM     64  CG2 THR A  26      -7.852  25.998  63.755  1.00 47.20     0.042 C 
BRANCH  63  65
ATOM     65  OG1 THR A  26      -6.371  26.525  65.597  1.00 50.51    -0.393 OA
ATOM     66  HG1 THR A  26      -5.502  26.189  65.781  1.00  0.00     0.210 HD
ENDBRANCH  63  65
ENDBRANCH  62  63
END_RES THR A  26
ENDMDL
MODEL 3
REMARK VINA RESULT:      -7.6      2.071      4.745
REMARK  20 active torsions:
REMARK  status: ('A' for Active; 'I' for Inactive)
REMARK       I    between atoms: C41_31  and  N_1 
REMARK    1  A    between atoms: N_1  and  CA_3 
REMARK    2  A    between atoms: CA_3  and  C_4 
REMARK       I    between atoms: C_4  and  N_7 
REMARK    3  A    between atoms: N_7  and  CA_9 
REMARK    4  A    between atoms: CA_9  and  CB_12 
REMARK    5  A    between atoms: CA_9  and  C_10 
REMARK       I    between atoms: C_10  and  N_15 
REMARK    6  A    between atoms: N_15  and  CA_17 
REMARK    7  A    between atoms: CA_17  and  CB_20 
REMARK    8  A    between atoms: CA_17  and  C_18 
REMARK       I    between atoms: C_18  and  N5_33 
REMARK    9  A    between atoms: CB_20  and  CG_21 
REMARK   10  A    between atoms: C3_27  and  C41_31 
REMARK   11  A    between atoms: N5_33  and  C19_41 
REMARK   12  A    between atoms: O8_39  and  C29_49 
REMARK   13  A    between atoms: C19_41  and  C20_42 
REMARK   14  A    between atoms: C19_41  and  C25_45 
REMARK   15  A    between atoms: C20_42  and  C21_43 
REMARK   16  A    between atoms: C21_43  and  C22_44 
REMARK   17  A    between atoms: C22_44  and  O_51 
REMARK   18  A    between atoms: C25_45  and  C26_46 
REMARK   19  A    between atoms: C_50  and  O_51 
REMARK   20  A    between atoms: C_50  and  C6_57 
ROOT
ATOM      1  N   ALA C   2     -10.469  18.595  68.473  1.00 41.65    -0.343 N 
ATOM      2  HN  ALA C   2     -10.855  19.235  69.167  1.00  0.00     0.163 HD
HETATM    3  C41 02J C   1     -10.692  17.153  68.595  1.00 47.56     0.270 C 
HETATM    4  O42 02J C   1     -10.246  16.414  67.788  1.00 47.13    -0.266 OA
ENDROOT
BRANCH   1   5
ATOM      5  CA  ALA C   2      -9.692  19.108  67.357  1.00 42.30     0.172 C 
ATOM      6  CB  ALA C   2      -9.835  20.606  67.273  1.00 36.98     0.042 C 
BRANCH   5   7
ATOM      7  C   ALA C   2      -8.191  18.737  67.572  1.00 41.96     0.240 C 
ATOM      8  N   VAL C   3      -7.566  18.996  68.846  1.00 34.91    -0.346 N 
ATOM      9  HN  VAL C   3      -8.104  19.418  69.603  1.00  0.00     0.163 HD
ATOM     10  O   ALA C   2      -7.574  18.254  66.702  1.00 41.95    -0.271 OA
BRANCH   8  11
ATOM     11  CA  VAL C   3      -6.156  18.652  69.053  1.00 36.29     0.180 C 
BRANCH  11  12
ATOM     12  CB  VAL C   3      -5.541  19.613  70.111  1.00 37.53     0.009 C 
ATOM     13  CG1 VAL C   3      -5.172  20.993  69.481  1.00 40.26     0.012 C 
ATOM     14  CG2 VAL C   3      -6.499  19.787  71.333  1.00 43.10     0.012 C 
ENDBRANCH  11  12
BRANCH  11  15
ATOM     15  C   VAL C   3      -6.052  17.232  69.543  1.00 40.78     0.241 C 
ATOM     16  O   VAL C   3      -4.997  16.687  69.563  1.00 36.69    -0.271 OA
ATOM     17  N   LEU C   4      -7.292  16.510  70.006  1.00 37.32    -0.346 N 
ATOM     18  HN  LEU C   4      -8.193  16.988  69.988  1.00  0.00     0.163 HD
BRANCH  17  19
ATOM     19  CA  LEU C   4      -7.210  15.136  70.478  1.00 39.95     0.177 C 
BRANCH  19  20
ATOM     20  CB  LEU C   4      -7.149  15.136  71.997  1.00 41.97     0.038 C 
BRANCH  20  21
ATOM     21  CG  LEU C   4      -6.065  14.175  72.581  1.00 45.86    -0.020 C 
ATOM     22  CD1 LEU C   4      -6.697  12.938  73.295  1.00 43.70     0.009 C 
ATOM     23  CD2 LEU C   4      -5.083  13.734  71.493  1.00 43.98     0.009 C 
ENDBRANCH  20  21
ENDBRANCH  19  20
BRANCH  19  24
ATOM     24  C   LEU C   4      -8.480  14.373  70.006  1.00 38.38     0.240 C 
HETATM   25  N5  PJE C   5      -8.553  13.813  68.626  1.00 34.60    -0.355 N 
HETATM   26  H5  PJE C   5      -7.768  13.927  67.985  1.00  0.00     0.162 HD
ATOM     27  O   LEU C   4      -9.401  14.242  70.746  1.00 44.55    -0.271 OA
BRANCH  25  28
HETATM   28  C19 PJE C   5      -9.768  13.091  68.191  1.00 40.54     0.085 C 
BRANCH  28  29
HETATM   29  C20 PJE C   5      -9.798  11.726  68.841  1.00 36.98     0.035 C 
BRANCH  29  30
HETATM   30  C21 PJE C   5      -8.685  10.790  68.322  1.00 45.43     0.113 C 
BRANCH  30  31
HETATM   31  C22 PJE C   5      -7.518  10.588  69.326  1.00 52.38     0.259 C 
HETATM   32  O7  PJE C   5      -6.642  11.387  69.403  1.00 57.27    -0.265 OA
BRANCH  31  33
HETATM   33  O   010 C   6      -7.499   9.426  70.148  1.00 52.13    -0.317 OA
BRANCH  33  34
HETATM   34  C   010 C   6      -8.355   8.376  69.690  1.00 63.14     0.217 C 
BRANCH  34  35
HETATM   35  C6  010 C   6      -9.448   8.145  70.768  1.00 66.95    -0.034 A 
HETATM   36  C1  010 C   6     -10.785   8.386  70.468  1.00 68.45     0.009 A 
HETATM   37  C2  010 C   6     -11.766   8.180  71.436  1.00 70.02     0.001 A 
HETATM   38  C3  010 C   6     -11.406   7.732  72.710  1.00 58.91     0.000 A 
HETATM   39  C4  010 C   6     -10.071   7.496  73.006  1.00 57.63     0.001 A 
HETATM   40  C5  010 C   6      -9.087   7.699  72.041  1.00 62.65     0.009 A 
ENDBRANCH  34  35
ENDBRANCH  33  34
ENDBRANCH  31  33
ENDBRANCH  30  31
ENDBRANCH  29  30
ENDBRANCH  28  29
BRANCH  28  41
HETATM   41  C25 PJE C   5      -9.759  12.933  66.672  1.00 30.76     0.034 C 
BRANCH  41  42
HETATM   42  C26 PJE C   5     -11.228  13.090  66.051  1.00 34.19     0.045 C 
HETATM   43  C27 PJE C   5     -11.584  11.783  65.118  1.00 40.55     0.036 C 
HETATM   44  C28 PJE C   5     -12.010  12.216  63.907  1.00 39.60     0.236 C 
HETATM   45  N6  PJE C   5     -11.667  13.683  63.816  1.00 35.08    -0.049 N 
HETATM   46  C29 PJE C   5     -11.316  14.151  65.321  1.00 34.70     0.322 C 
HETATM   47  H62 PJE C   5     -10.928  13.888  63.143  1.00  0.00     0.280 HD
HETATM   48  H61 PJE C   5     -12.395  14.245  63.375  1.00  0.00     0.280 HD
BRANCH  46  49
HETATM   49  O8  PJE C   5     -10.107  14.913  65.331  1.00 31.54    -0.369 OA
HETATM   50  H8  PJE C   5     -10.092  15.513  64.594  1.00  0.00     0.212 HD
ENDBRANCH  46  49
ENDBRANCH  41  42
ENDBRANCH  28  41
ENDBRANCH  25  28
ENDBRANCH  19  24
ENDBRANCH  17  19
ENDBRANCH  11  15
ENDBRANCH   8  11
ENDBRANCH   5   7
ENDBRANCH   1   5
BRANCH   3  51
HETATM   51  C3  02J C   1     -11.510  16.597  69.771  1.00 50.26     0.124 A 
HETATM   52  N2  02J C   1     -11.292  16.810  71.072  1.00 56.79    -0.256 N 
HETATM   53  O1  02J C   1     -12.189  16.177  71.792  1.00 63.01    -0.242 OA
HETATM   54  H2  02J C   1     -10.538  17.382  71.450  1.00  0.00     0.195 HD
HETATM   55  C5  02J C   1     -13.031  15.525  71.045  1.00 63.03     0.075 A 
HETATM   56  C4  02J C   1     -12.658  15.746  69.700  1.00 54.38     0.071 A 
HETATM   57  C6  02J C   1     -14.202  14.680  71.529  1.00 64.36     0.079 C 
ENDBRANCH   3  51
TORSDOF 20
BEGIN_RES HIS A  41
REMARK  2 active torsions:
REMARK  status: ('A' for Active; 'I' for Inactive)
REMARK    1  A    between atoms: CA   and  CB  
REMARK    2  A    between atoms: CB   and  CG  
ROOT
ATOM      1  CA  HIS A  41     -13.820  21.037  73.265  1.00 38.89     0.182 C 
ENDROOT
BRANCH   1   2
ATOM      2  CB  HIS A  41     -13.705  19.545  72.937  1.00 42.38     0.093 C 
BRANCH   2   3
ATOM      3  CG  HIS A  41     -14.123  19.194  71.544  1.00 37.90     0.028 A 
ATOM      4  CD2 HIS A  41     -15.192  18.505  71.078  1.00 37.33     0.114 A 
ATOM      5  NE2 HIS A  41     -15.093  18.482  69.709  1.00 41.88    -0.360 N 
ATOM      6  CE1 HIS A  41     -14.005  19.137  69.346  1.00 41.55     0.180 A 
ATOM      7  HE2 HIS A  41     -15.753  18.031  69.075  1.00  0.00     0.166 HD
ATOM      8  ND1 HIS A  41     -13.403  19.580  70.434  1.00 36.57    -0.354 N 
ATOM      9  HD1 HIS A  41     -12.539  20.123  70.451  1.00  0.00     0.166 HD
ENDBRANCH   2   3
ENDBRANCH   1   2
END_RES HIS A  41
BEGIN_RES CYS A 145
REMARK  1 active torsions:
REMARK  status: ('A' for Active; 'I' for Inactive)
REMARK    3  A    between atoms: CA   and  CB  
ROOT
ATOM     10  CA  CYS A 145     -14.607  19.162  64.101  1.00 29.71     0.186 C 
ENDROOT
BRANCH  10  11
ATOM     11  CB  CYS A 145     -14.100  19.110  65.541  1.00 31.75     0.120 C 
ATOM     12  SG  CYS A 145     -13.511  17.482  66.042  1.00 39.68    -0.095 SA
ENDBRANCH  10  11
END_RES CYS A 145
BEGIN_RES GLN A 189
REMARK  3 active torsions:
REMARK  status: ('A' for Active; 'I' for Inactive)
REMARK    4  A    between atoms: CA   and  CB  
REMARK    5  A    between atoms: CB   and  CG  
REMARK    6  A    between atoms: CG   and  CD  
REMARK       I    between atoms: CD   and  NE2 
ROOT
ATOM     13  CA  GLN A 189     -11.641  10.633  75.105  1.00 38.41     0.177 C 
ENDROOT
BRANCH  13  14
ATOM     14  CB  GLN A 189     -10.259  11.109  74.679  1.00 37.59     0.044 C 
BRANCH  14  15
ATOM     15  CG  GLN A 189     -10.085  11.195  73.172  1.00 45.60     0.105 C 
BRANCH  15  16
ATOM     16  CD  GLN A 189     -11.120  12.084  72.512  1.00 47.27     0.215 C 
ATOM     17  NE2 GLN A 189     -11.074  13.376  72.818  1.00 44.45    -0.370 N 
ATOM     18 2HE2 GLN A 189     -10.384  13.765  73.461  1.00  0.00     0.159 HD
ATOM     19 1HE2 GLN A 189     -11.771  13.974  72.374  1.00  0.00     0.159 HD
ATOM     20  OE1 GLN A 189     -11.952  11.614  71.736  1.00 41.09    -0.274 OA
ENDBRANCH  15  16
ENDBRANCH  14  15
ENDBRANCH  13  14
END_RES GLN A 189
BEGIN_RES ASN A 142
REMARK  2 active torsions:
REMARK  status: ('A' for Active; 'I' for Inactive)
REMARK    7  A    between atoms: CA   and  CB  
REMARK    8  A    between atoms: CB   and  CG  
REMARK       I    between atoms: CG   and  ND2 
ROOT
ATOM     21  CA  ASN A 142      -7.978  15.712  62.559  1.00 43.18     0.185 C 
ENDROOT
BRANCH  21  22
ATOM     22  CB  ASN A 142      -6.512  15.609  62.983  1.00 38.76     0.137 C 
BRANCH  22  23
ATOM     23  CG  ASN A 142      -6.348  15.384  64.474  1.00 50.71     0.217 C 
ATOM     24  ND2 ASN A 142      -5.109  15.444  64.948  1.00 55.08    -0.370 N 
ATOM     25 2HD2 ASN A 142      -4.301  15.629  64.353  1.00  0.00     0.159 HD
ATOM     26 1HD2 ASN A 142      -4.998  15.292  65.951  1.00  0.00     0.159 HD
ATOM     27  OD1 ASN A 142      -7.322  15.160  65.192  1.00 51.97    -0.274 OA
ENDBRANCH  22  23
ENDBRANCH  21  22
END_RES ASN A 142
BEGIN_RES LEU A  27
REMARK  2 active torsions:
REMARK  status: ('A' for Active; 'I' for Inactive)
REMARK    9  A    between atoms: CA   and  CB  
REMARK   10  A    between atoms: CB   and  CG  
ROOT
ATOM     28  CA  LEU A  27     -11.471  23.771  64.549  1.00 37.04     0.177 C 
ENDROOT
BRANCH  28  29
ATOM     29  CB  LEU A  27     -12.225  22.902  65.570  1.00 37.70     0.038 C 
BRANCH  29  30
ATOM     30  CG  LEU A  27     -12.601  23.433  66.953  1.00 36.32    -0.020 C 
ATOM     31  CD1 LEU A  27     -13.702  24.479  66.870  1.00 32.79     0.009 C 
ATOM     32  CD2 LEU A  27     -13.037  22.274  67.836  1.00 31.17     0.009 C 
ENDBRANCH  29  30
ENDBRANCH  28  29
END_RES LEU A  27
BEGIN_RES MET A  49
REMARK  3 active torsions:
REMARK  status: ('A' for Active; 'I' for Inactive)
REMARK   11  A    between atoms: CA   and  CB  
REMARK   12  A    between atoms: CB   and  CG  
REMARK   13  A    between atoms: CG   and  SD  
ROOT
ATOM     33  CA  MET A  49      -9.418  15.600  76.823  1.00 61.58     0.177 C 
ENDROOT
BRANCH  33  34
ATOM     34  CB  MET A  49      -8.930  15.410  75.386  1.00 62.15     0.045 C 
BRANCH  34  35
ATOM     35  CG  MET A  49      -9.684  16.254  74.370  1.00 60.24     0.076 C 
BRANCH  35  36
ATOM     36  SD  MET A  49     -11.107  17.110  75.070  1.00 77.15    -0.173 SA
ATOM     37  CE  MET A  49     -12.360  15.834  74.949  1.00 60.34     0.089 C 
ENDBRANCH  35  36
ENDBRANCH  34  35
ENDBRANCH  33  34
END_RES MET A  49
BEGIN_RES GLU A 166
REMARK  3 active torsions:
REMARK  status: ('A' for Active; 'I' for Inactive)
REMARK   14  A    between atoms: CA   and  CB  
REMARK   15  A    between atoms: CB   and  CG  
REMARK   16  A    between atoms: CG   and  CD  
ROOT
ATOM     38  CA  GLU A 166     -14.746   9.219  66.167  1.00 28.52     0.177 C 
ENDROOT
BRANCH  38  39
ATOM     39  CB  GLU A 166     -13.578   9.064  65.189  1.00 29.90     0.045 C 
BRANCH  39  40
ATOM     40  CG  GLU A 166     -13.644   7.853  64.279  1.00 36.08     0.116 C 
BRANCH  40  41
ATOM     41  CD  GLU A 166     -12.442   7.769  63.356  1.00 45.17     0.172 C 
ATOM     42  OE2 GLU A 166     -11.835   6.681  63.267  1.00 40.54    -0.648 OA
ATOM     43  OE1 GLU A 166     -12.110   8.788  62.712  1.00 50.70    -0.648 OA
ENDBRANCH  40  41
ENDBRANCH  39  40
ENDBRANCH  38  39
END_RES GLU A 166
BEGIN_RES HIS A 163
REMARK  2 active torsions:
REMARK  status: ('A' for Active; 'I' for Inactive)
REMARK   17  A    between atoms: CA   and  CB  
REMARK   18  A    between atoms: CB   and  CG  
ROOT
ATOM     44  CA  HIS A 163     -19.055  16.637  64.100  1.00 27.27     0.182 C 
ENDROOT
BRANCH  44  45
ATOM     45  CB  HIS A 163     -18.129  16.377  62.914  1.00 26.00     0.093 C 
BRANCH  45  46
ATOM     46  CG  HIS A 163     -17.094  15.331  63.184  1.00 26.66     0.028 A 
ATOM     47  ND1 HIS A 163     -15.751  15.624  63.279  1.00 26.97    -0.354 N 
ATOM     48  CE1 HIS A 163     -15.076  14.512  63.515  1.00 30.44     0.180 A 
ATOM     49  HD1 HIS A 163     -15.341  16.553  63.183  1.00  0.00     0.166 HD
ATOM     50  NE2 HIS A 163     -15.934  13.509  63.571  1.00 30.00    -0.360 N 
ATOM     51  CD2 HIS A 163     -17.202  13.994  63.366  1.00 29.24     0.114 A 
ATOM     52  HE2 HIS A 163     -15.693  12.532  63.739  1.00  0.00     0.166 HD
ENDBRANCH  45  46
ENDBRANCH  44  45
END_RES HIS A 163
BEGIN_RES HIS A 172
REMARK  2 active torsions:
REMARK  status: ('A' for Active; 'I' for Inactive)
REMARK   19  A    between atoms: CA   and  CB  
REMARK   20  A    between atoms: CB   and  CG  
ROOT
ATOM     53  CA  HIS A 172     -18.444   9.111  64.049  1.00 29.85     0.182 C 
ENDROOT
BRANCH  53  54
ATOM     54  CB  HIS A 172     -18.188  10.085  62.898  1.00 26.76     0.093 C 
BRANCH  54  55
ATOM     55  CG  HIS A 172     -16.867   9.881  62.225  1.00 28.76     0.028 A 
ATOM     56  CD2 HIS A 172     -15.622  10.295  62.562  1.00 29.36     0.114 A 
ATOM     57  NE2 HIS A 172     -14.763   9.820  61.600  1.00 33.77    -0.360 N 
ATOM     58  CE1 HIS A 172     -15.455   9.134  60.707  1.00 32.44     0.180 A 
ATOM     59  HE2 HIS A 172     -13.755   9.973  61.579  1.00  0.00     0.166 HD
ATOM     60  ND1 HIS A 172     -16.728   9.152  61.063  1.00 29.32    -0.354 N 
ATOM     61  HD1 HIS A 172     -17.489   8.698  60.557  1.00  0.00     0.166 HD
ENDBRANCH  54  55
ENDBRANCH  53  54
END_RES HIS A 172
BEGIN_RES THR A  26
REMARK  2 active torsions:
REMARK  status: ('A' for Active; 'I' for Inactive)
REMARK   21  A    between atoms: CA   and  CB  
REMARK   22  A    between atoms: CB   and  OG1 
ROOT
ATOM     62  CA  THR A  26      -8.224  25.031  66.060  1.00 43.98     0.205 C 
ENDROOT
BRANCH  62  63
ATOM     63  CB  THR A  26      -7.184  25.490  65.034  1.00 45.90     0.146 C 
ATOM     64  CG2 THR A  26      -7.853  26.008  63.759  1.00 47.20     0.042 C 
BRANCH  63  65
ATOM     65  OG1 THR A  26      -6.364  26.518  65.601  1.00 50.51    -0.393 OA
ATOM     66  HG1 THR A  26      -5.835  26.157  66.303  1.00  0.00     0.210 HD
ENDBRANCH  63  65
ENDBRANCH  62  63
END_RES THR A  26
ENDMDL
MODEL 4
REMARK VINA RESULT:      -7.6      2.008      5.705
REMARK  20 active torsions:
REMARK  status: ('A' for Active; 'I' for Inactive)
REMARK       I    between atoms: C41_31  and  N_1 
REMARK    1  A    between atoms: N_1  and  CA_3 
REMARK    2  A    between atoms: CA_3  and  C_4 
REMARK       I    between atoms: C_4  and  N_7 
REMARK    3  A    between atoms: N_7  and  CA_9 
REMARK    4  A    between atoms: CA_9  and  CB_12 
REMARK    5  A    between atoms: CA_9  and  C_10 
REMARK       I    between atoms: C_10  and  N_15 
REMARK    6  A    between atoms: N_15  and  CA_17 
REMARK    7  A    between atoms: CA_17  and  CB_20 
REMARK    8  A    between atoms: CA_17  and  C_18 
REMARK       I    between atoms: C_18  and  N5_33 
REMARK    9  A    between atoms: CB_20  and  CG_21 
REMARK   10  A    between atoms: C3_27  and  C41_31 
REMARK   11  A    between atoms: N5_33  and  C19_41 
REMARK   12  A    between atoms: O8_39  and  C29_49 
REMARK   13  A    between atoms: C19_41  and  C20_42 
REMARK   14  A    between atoms: C19_41  and  C25_45 
REMARK   15  A    between atoms: C20_42  and  C21_43 
REMARK   16  A    between atoms: C21_43  and  C22_44 
REMARK   17  A    between atoms: C22_44  and  O_51 
REMARK   18  A    between atoms: C25_45  and  C26_46 
REMARK   19  A    between atoms: C_50  and  O_51 
REMARK   20  A    between atoms: C_50  and  C6_57 
ROOT
ATOM      1  N   ALA C   2     -10.102  13.820  64.997  1.00 41.65    -0.343 N 
ATOM      2  HN  ALA C   2      -9.371  14.095  65.652  1.00  0.00     0.163 HD
HETATM    3  C41 02J C   1      -9.923  12.646  64.140  1.00 47.56     0.270 C 
HETATM    4  O42 02J C   1     -10.774  12.328  63.384  1.00 47.13    -0.266 OA
ENDROOT
BRANCH   1   5
ATOM      5  CA  ALA C   2     -11.332  14.590  64.907  1.00 42.30     0.172 C 
ATOM      6  CB  ALA C   2     -12.259  14.217  66.036  1.00 36.98     0.042 C 
BRANCH   5   7
ATOM      7  C   ALA C   2     -10.985  16.109  64.995  1.00 41.96     0.240 C 
ATOM      8  N   VAL C   3     -10.155  16.592  66.071  1.00 34.91    -0.346 N 
ATOM      9  HN  VAL C   3      -9.795  15.942  66.770  1.00  0.00     0.163 HD
ATOM     10  O   ALA C   2     -11.399  16.854  64.193  1.00 41.95    -0.271 OA
BRANCH   8  11
ATOM     11  CA  VAL C   3      -9.828  18.018  66.161  1.00 36.29     0.180 C 
BRANCH  11  12
ATOM     12  CB  VAL C   3     -10.696  18.678  67.272  1.00 37.53     0.009 C 
ATOM     13  CG1 VAL C   3     -10.934  17.698  68.464  1.00 40.26     0.012 C 
ATOM     14  CG2 VAL C   3     -10.058  20.018  67.759  1.00 43.10     0.012 C 
ENDBRANCH  11  12
BRANCH  11  15
ATOM     15  C   VAL C   3      -8.370  18.179  66.501  1.00 40.78     0.241 C 
ATOM     16  O   VAL C   3      -7.621  18.639  65.703  1.00 36.69    -0.271 OA
ATOM     17  N   LEU C   4      -7.870  17.752  67.858  1.00 37.32    -0.346 N 
ATOM     18  HN  LEU C   4      -8.521  17.360  68.538  1.00  0.00     0.163 HD
BRANCH  17  19
ATOM     19  CA  LEU C   4      -6.463  17.895  68.202  1.00 39.95     0.177 C 
BRANCH  19  20
ATOM     20  CB  LEU C   4      -6.349  18.588  69.550  1.00 41.97     0.038 C 
BRANCH  20  21
ATOM     21  CG  LEU C   4      -6.176  20.137  69.445  1.00 45.86    -0.020 C 
ATOM     22  CD1 LEU C   4      -5.125  20.682  70.464  1.00 43.70     0.009 C 
ATOM     23  CD2 LEU C   4      -5.816  20.552  68.017  1.00 43.98     0.009 C 
ENDBRANCH  20  21
ENDBRANCH  19  20
BRANCH  19  24
ATOM     24  C   LEU C   4      -5.827  16.478  68.287  1.00 38.38     0.240 C 
HETATM   25  N5  PJE C   5      -6.439  15.428  69.150  1.00 34.60    -0.355 N 
HETATM   26  H5  PJE C   5      -7.280  15.634  69.688  1.00  0.00     0.162 HD
ATOM     27  O   LEU C   4      -4.843  16.234  67.667  1.00 44.55    -0.271 OA
BRANCH  25  28
HETATM   28  C19 PJE C   5      -5.822  14.086  69.221  1.00 40.54     0.085 C 
BRANCH  28  29
HETATM   29  C20 PJE C   5      -6.469  13.183  68.196  1.00 36.98     0.035 C 
BRANCH  29  30
HETATM   30  C21 PJE C   5      -7.839  12.639  68.655  1.00 45.43     0.113 C 
BRANCH  30  31
HETATM   31  C22 PJE C   5      -9.034  13.563  68.291  1.00 52.38     0.259 C 
HETATM   32  O7  PJE C   5      -8.847  14.611  67.763  1.00 57.27    -0.265 OA
BRANCH  31  33
HETATM   33  O   010 C   6     -10.357  13.149  68.609  1.00 52.13    -0.317 OA
BRANCH  33  34
HETATM   34  C   010 C   6     -10.728  13.380  69.971  1.00 63.14     0.217 C 
BRANCH  34  35
HETATM   35  C6  010 C   6     -11.489  12.127  70.479  1.00 66.95    -0.034 A 
HETATM   36  C1  010 C   6     -12.480  12.258  71.447  1.00 68.45     0.009 A 
HETATM   37  C2  010 C   6     -13.163  11.132  71.904  1.00 70.02     0.001 A 
HETATM   38  C3  010 C   6     -12.851   9.870  71.391  1.00 58.91     0.000 A 
HETATM   39  C4  010 C   6     -11.859   9.744  70.428  1.00 57.63     0.001 A 
HETATM   40  C5  010 C   6     -11.175  10.867  69.967  1.00 62.65     0.009 A 
ENDBRANCH  34  35
ENDBRANCH  33  34
ENDBRANCH  31  33
ENDBRANCH  30  31
ENDBRANCH  29  30
ENDBRANCH  28  29
BRANCH  28  41
HETATM   41  C25 PJE C   5      -6.022  13.499  70.617  1.00 30.76     0.034 C 
BRANCH  41  42
HETATM   42  C26 PJE C   5      -5.232  14.335  71.731  1.00 34.19     0.045 C 
HETATM   43  C27 PJE C   5      -4.258  13.333  72.598  1.00 40.55     0.036 C 
HETATM   44  C28 PJE C   5      -4.495  13.528  73.917  1.00 39.60     0.236 C 
HETATM   45  N6  PJE C   5      -5.768  14.331  74.023  1.00 35.08    -0.049 N 
HETATM   46  C29 PJE C   5      -6.048  14.918  72.545  1.00 34.70     0.322 C 
HETATM   47  H62 PJE C   5      -6.552  13.803  74.407  1.00  0.00     0.280 HD
HETATM   48  H61 PJE C   5      -5.738  15.049  74.747  1.00  0.00     0.280 HD
BRANCH  46  49
HETATM   49  O8  PJE C   5      -7.413  14.708  72.181  1.00 31.54    -0.369 OA
HETATM   50  H8  PJE C   5      -7.548  13.804  71.921  1.00  0.00     0.212 HD
ENDBRANCH  46  49
ENDBRANCH  41  42
ENDBRANCH  28  41
ENDBRANCH  25  28
ENDBRANCH  19  24
ENDBRANCH  17  19
ENDBRANCH  11  15
ENDBRANCH   8  11
ENDBRANCH   5   7
ENDBRANCH   1   5
BRANCH   3  51
HETATM   51  C3  02J C   1      -8.627  11.823  64.223  1.00 50.26     0.124 A 
HETATM   52  N2  02J C   1      -7.531  12.122  64.926  1.00 56.79    -0.256 N 
HETATM   53  O1  02J C   1      -6.619  11.192  64.760  1.00 63.01    -0.242 OA
HETATM   54  H2  02J C   1      -7.419  12.952  65.507  1.00  0.00     0.195 HD
HETATM   55  C5  02J C   1      -7.034  10.249  63.966  1.00 63.03     0.075 A 
HETATM   56  C4  02J C   1      -8.346  10.584  63.564  1.00 54.38     0.071 A 
HETATM   57  C6  02J C   1      -6.250   9.013  63.545  1.00 64.36     0.079 C 
ENDBRANCH   3  51
TORSDOF 20
BEGIN_RES HIS A  41
REMARK  2 active torsions:
REMARK  status: ('A' for Active; 'I' for Inactive)
REMARK    1  A    between atoms: CA   and  CB  
REMARK    2  A    between atoms: CB   and  CG  
ROOT
ATOM      1  CA  HIS A  41     -13.820  21.037  73.265  1.00 38.89     0.182 C 
ENDROOT
BRANCH   1   2
ATOM      2  CB  HIS A  41     -13.705  19.545  72.937  1.00 42.38     0.093 C 
BRANCH   2   3
ATOM      3  CG  HIS A  41     -14.192  19.183  71.569  1.00 37.90     0.028 A 
ATOM      4  CD2 HIS A  41     -15.293  18.508  71.162  1.00 37.33     0.114 A 
ATOM      5  NE2 HIS A  41     -15.256  18.464  69.790  1.00 41.88    -0.360 N 
ATOM      6  CE1 HIS A  41     -14.174  19.095  69.369  1.00 41.55     0.180 A 
ATOM      7  HE2 HIS A  41     -15.952  18.017  69.193  1.00  0.00     0.166 HD
ATOM      8  ND1 HIS A  41     -13.516  19.541  70.423  1.00 36.57    -0.354 N 
ATOM      9  HD1 HIS A  41     -12.643  20.068  70.393  1.00  0.00     0.166 HD
ENDBRANCH   2   3
ENDBRANCH   1   2
END_RES HIS A  41
BEGIN_RES CYS A 145
REMARK  1 active torsions:
REMARK  status: ('A' for Active; 'I' for Inactive)
REMARK    3  A    between atoms: CA   and  CB  
ROOT
ATOM     10  CA  CYS A 145     -14.607  19.162  64.101  1.00 29.71     0.186 C 
ENDROOT
BRANCH  10  11
ATOM     11  CB  CYS A 145     -14.100  19.110  65.541  1.00 31.75     0.120 C 
ATOM     12  SG  CYS A 145     -14.110  17.454  66.252  1.00 39.68    -0.095 SA
ENDBRANCH  10  11
END_RES CYS A 145
BEGIN_RES GLN A 189
REMARK  3 active torsions:
REMARK  status: ('A' for Active; 'I' for Inactive)
REMARK    4  A    between atoms: CA   and  CB  
REMARK    5  A    between atoms: CB   and  CG  
REMARK    6  A    between atoms: CG   and  CD  
REMARK       I    between atoms: CD   and  NE2 
ROOT
ATOM     13  CA  GLN A 189     -11.641  10.633  75.105  1.00 38.41     0.177 C 
ENDROOT
BRANCH  13  14
ATOM     14  CB  GLN A 189     -10.259  11.109  74.679  1.00 37.59     0.044 C 
BRANCH  14  15
ATOM     15  CG  GLN A 189      -9.773  10.479  73.384  1.00 45.60     0.105 C 
BRANCH  15  16
ATOM     16  CD  GLN A 189      -8.563  11.186  72.806  1.00 47.27     0.215 C 
ATOM     17  NE2 GLN A 189      -8.028  10.649  71.715  1.00 44.45    -0.370 N 
ATOM     18 2HE2 GLN A 189      -8.399   9.806  71.278  1.00  0.00     0.159 HD
ATOM     19 1HE2 GLN A 189      -7.213  11.125  71.327  1.00  0.00     0.159 HD
ATOM     20  OE1 GLN A 189      -8.115  12.204  73.335  1.00 41.09    -0.274 OA
ENDBRANCH  15  16
ENDBRANCH  14  15
ENDBRANCH  13  14
END_RES GLN A 189
BEGIN_RES ASN A 142
REMARK  2 active torsions:
REMARK  status: ('A' for Active; 'I' for Inactive)
REMARK    7  A    between atoms: CA   and  CB  
REMARK    8  A    between atoms: CB   and  CG  
REMARK       I    between atoms: CG   and  ND2 
ROOT
ATOM     21  CA  ASN A 142      -7.978  15.712  62.559  1.00 43.18     0.185 C 
ENDROOT
BRANCH  21  22
ATOM     22  CB  ASN A 142      -6.512  15.609  62.983  1.00 38.76     0.137 C 
BRANCH  22  23
ATOM     23  CG  ASN A 142      -6.349  15.319  64.463  1.00 50.71     0.217 C 
ATOM     24  ND2 ASN A 142      -5.104  15.218  64.912  1.00 55.08    -0.370 N 
ATOM     25 2HD2 ASN A 142      -4.290  15.325  64.305  1.00  0.00     0.159 HD
ATOM     26 1HD2 ASN A 142      -4.994  15.022  65.908  1.00  0.00     0.159 HD
ATOM     27  OD1 ASN A 142      -7.330  15.189  65.195  1.00 51.97    -0.274 OA
ENDBRANCH  22  23
ENDBRANCH  21  22
END_RES ASN A 142
BEGIN_RES LEU A  27
REMARK  2 active torsions:
REMARK  status: ('A' for Active; 'I' for Inactive)
REMARK    9  A    between atoms: CA   and  CB  
REMARK   10  A    between atoms: CB   and  CG  
ROOT
ATOM     28  CA  LEU A  27     -11.471  23.771  64.549  1.00 37.04     0.177 C 
ENDROOT
BRANCH  28  29
ATOM     29  CB  LEU A  27     -12.225  22.902  65.570  1.00 37.70     0.038 C 
BRANCH  29  30
ATOM     30  CG  LEU A  27     -12.604  23.434  66.952  1.00 36.32    -0.020 C 
ATOM     31  CD1 LEU A  27     -13.746  24.435  66.873  1.00 32.79     0.009 C 
ATOM     32  CD2 LEU A  27     -12.982  22.269  67.854  1.00 31.17     0.009 C 
ENDBRANCH  29  30
ENDBRANCH  28  29
END_RES LEU A  27
BEGIN_RES MET A  49
REMARK  3 active torsions:
REMARK  status: ('A' for Active; 'I' for Inactive)
REMARK   11  A    between atoms: CA   and  CB  
REMARK   12  A    between atoms: CB   and  CG  
REMARK   13  A    between atoms: CG   and  SD  
ROOT
ATOM     33  CA  MET A  49      -9.418  15.600  76.823  1.00 61.58     0.177 C 
ENDROOT
BRANCH  33  34
ATOM     34  CB  MET A  49      -8.930  15.410  75.386  1.00 62.15     0.045 C 
BRANCH  34  35
ATOM     35  CG  MET A  49      -9.726  16.204  74.362  1.00 60.24     0.076 C 
BRANCH  35  36
ATOM     36  SD  MET A  49     -10.853  15.186  73.389  1.00 77.15    -0.173 SA
ATOM     37  CE  MET A  49     -12.376  15.399  74.309  1.00 60.34     0.089 C 
ENDBRANCH  35  36
ENDBRANCH  34  35
ENDBRANCH  33  34
END_RES MET A  49
BEGIN_RES GLU A 166
REMARK  3 active torsions:
REMARK  status: ('A' for Active; 'I' for Inactive)
REMARK   14  A    between atoms: CA   and  CB  
REMARK   15  A    between atoms: CB   and  CG  
REMARK   16  A    between atoms: CG   and  CD  
ROOT
ATOM     38  CA  GLU A 166     -14.746   9.219  66.167  1.00 28.52     0.177 C 
ENDROOT
BRANCH  38  39
ATOM     39  CB  GLU A 166     -13.578   9.064  65.189  1.00 29.90     0.045 C 
BRANCH  39  40
ATOM     40  CG  GLU A 166     -13.629   7.837  64.299  1.00 36.08     0.116 C 
BRANCH  40  41
ATOM     41  CD  GLU A 166     -12.361   7.675  63.482  1.00 45.17     0.172 C 
ATOM     42  OE2 GLU A 166     -11.304   8.180  63.917  1.00 40.54    -0.648 OA
ATOM     43  OE1 GLU A 166     -12.416   7.033  62.410  1.00 50.70    -0.648 OA
ENDBRANCH  40  41
ENDBRANCH  39  40
ENDBRANCH  38  39
END_RES GLU A 166
BEGIN_RES HIS A 163
REMARK  2 active torsions:
REMARK  status: ('A' for Active; 'I' for Inactive)
REMARK   17  A    between atoms: CA   and  CB  
REMARK   18  A    between atoms: CB   and  CG  
ROOT
ATOM     44  CA  HIS A 163     -19.055  16.637  64.100  1.00 27.27     0.182 C 
ENDROOT
BRANCH  44  45
ATOM     45  CB  HIS A 163     -18.129  16.377  62.914  1.00 26.00     0.093 C 
BRANCH  45  46
ATOM     46  CG  HIS A 163     -17.107  15.316  63.177  1.00 26.66     0.028 A 
ATOM     47  ND1 HIS A 163     -15.758  15.586  63.244  1.00 26.97    -0.354 N 
ATOM     48  CE1 HIS A 163     -15.098  14.466  63.480  1.00 30.44     0.180 A 
ATOM     49  HD1 HIS A 163     -15.334  16.507  63.131  1.00  0.00     0.166 HD
ATOM     50  NE2 HIS A 163     -15.972  13.478  63.563  1.00 30.00    -0.360 N 
ATOM     51  CD2 HIS A 163     -17.236  13.983  63.376  1.00 29.24     0.114 A 
ATOM     52  HE2 HIS A 163     -15.745  12.499  63.737  1.00  0.00     0.166 HD
ENDBRANCH  45  46
ENDBRANCH  44  45
END_RES HIS A 163
BEGIN_RES HIS A 172
REMARK  2 active torsions:
REMARK  status: ('A' for Active; 'I' for Inactive)
REMARK   19  A    between atoms: CA   and  CB  
REMARK   20  A    between atoms: CB   and  CG  
ROOT
ATOM     53  CA  HIS A 172     -18.444   9.111  64.049  1.00 29.85     0.182 C 
ENDROOT
BRANCH  53  54
ATOM     54  CB  HIS A 172     -18.188  10.085  62.898  1.00 26.76     0.093 C 
BRANCH  54  55
ATOM     55  CG  HIS A 172     -16.950   9.774  62.117  1.00 28.76     0.028 A 
ATOM     56  CD2 HIS A 172     -16.772   9.085  60.965  1.00 29.36     0.114 A 
ATOM     57  NE2 HIS A 172     -15.429   9.111  60.680  1.00 33.77    -0.360 N 
ATOM     58  CE1 HIS A 172     -14.803   9.796  61.621  1.00 32.44     0.180 A 
ATOM     59  HE2 HIS A 172     -14.986   8.672  59.873  1.00  0.00     0.166 HD
ATOM     60  ND1 HIS A 172     -15.699  10.211  62.499  1.00 29.32    -0.354 N 
ATOM     61  HD1 HIS A 172     -15.498  10.767  63.330  1.00  0.00     0.166 HD
ENDBRANCH  54  55
ENDBRANCH  53  54
END_RES HIS A 172
BEGIN_RES THR A  26
REMARK  2 active torsions:
REMARK  status: ('A' for Active; 'I' for Inactive)
REMARK   21  A    between atoms: CA   and  CB  
REMARK   22  A    between atoms: CB   and  OG1 
ROOT
ATOM     62  CA  THR A  26      -8.224  25.031  66.060  1.00 43.98     0.205 C 
ENDROOT
BRANCH  62  63
ATOM     63  CB  THR A  26      -7.184  25.490  65.034  1.00 45.90     0.146 C 
ATOM     64  CG2 THR A  26      -7.853  26.070  63.786  1.00 47.20     0.042 C 
BRANCH  63  65
ATOM     65  OG1 THR A  26      -6.324  26.473  65.621  1.00 50.51    -0.393 OA
ATOM     66  HG1 THR A  26      -5.454  26.111  65.738  1.00  0.00     0.210 HD
ENDBRANCH  63  65
ENDBRANCH  62  63
END_RES THR A  26
ENDMDL
MODEL 5
REMARK VINA RESULT:      -7.6      2.089      5.338
REMARK  20 active torsions:
REMARK  status: ('A' for Active; 'I' for Inactive)
REMARK       I    between atoms: C41_31  and  N_1 
REMARK    1  A    between atoms: N_1  and  CA_3 
REMARK    2  A    between atoms: CA_3  and  C_4 
REMARK       I    between atoms: C_4  and  N_7 
REMARK    3  A    between atoms: N_7  and  CA_9 
REMARK    4  A    between atoms: CA_9  and  CB_12 
REMARK    5  A    between atoms: CA_9  and  C_10 
REMARK       I    between atoms: C_10  and  N_15 
REMARK    6  A    between atoms: N_15  and  CA_17 
REMARK    7  A    between atoms: CA_17  and  CB_20 
REMARK    8  A    between atoms: CA_17  and  C_18 
REMARK       I    between atoms: C_18  and  N5_33 
REMARK    9  A    between atoms: CB_20  and  CG_21 
REMARK   10  A    between atoms: C3_27  and  C41_31 
REMARK   11  A    between atoms: N5_33  and  C19_41 
REMARK   12  A    between atoms: O8_39  and  C29_49 
REMARK   13  A    between atoms: C19_41  and  C20_42 
REMARK   14  A    between atoms: C19_41  and  C25_45 
REMARK   15  A    between atoms: C20_42  and  C21_43 
REMARK   16  A    between atoms: C21_43  and  C22_44 
REMARK   17  A    between atoms: C22_44  and  O_51 
REMARK   18  A    between atoms: C25_45  and  C26_46 
REMARK   19  A    between atoms: C_50  and  O_51 
REMARK   20  A    between atoms: C_50  and  C6_57 
ROOT
ATOM      1  N   ALA C   2      -9.141  10.279  68.501  1.00 41.65    -0.343 N 
ATOM      2  HN  ALA C   2      -9.233   9.323  68.158  1.00  0.00     0.163 HD
HETATM    3  C41 02J C   1      -9.974  10.747  69.611  1.00 47.56     0.270 C 
HETATM    4  O42 02J C   1      -9.863  11.855  70.010  1.00 47.13    -0.266 OA
ENDROOT
BRANCH   1   5
ATOM      5  CA  ALA C   2      -8.183  11.187  67.893  1.00 42.30     0.172 C 
ATOM      6  CB  ALA C   2      -7.090  10.403  67.212  1.00 36.98     0.042 C 
BRANCH   5   7
ATOM      7  C   ALA C   2      -8.922  12.074  66.844  1.00 41.96     0.240 C 
ATOM      8  N   VAL C   3      -9.422  13.371  67.230  1.00 34.91    -0.346 N 
ATOM      9  HN  VAL C   3      -9.291  13.706  68.184  1.00  0.00     0.163 HD
ATOM     10  O   ALA C   2      -9.073  11.688  65.750  1.00 41.95    -0.271 OA
BRANCH   8  11
ATOM     11  CA  VAL C   3     -10.119  14.208  66.249  1.00 36.29     0.180 C 
BRANCH  11  12
ATOM     12  CB  VAL C   3     -11.653  14.130  66.502  1.00 37.53     0.009 C 
ATOM     13  CG1 VAL C   3     -12.324  13.050  65.597  1.00 40.26     0.012 C 
ATOM     14  CG2 VAL C   3     -11.959  13.873  68.012  1.00 43.10     0.012 C 
ENDBRANCH  11  12
BRANCH  11  15
ATOM     15  C   VAL C   3      -9.660  15.636  66.389  1.00 40.78     0.241 C 
ATOM     16  O   VAL C   3      -9.683  16.362  65.451  1.00 36.69    -0.271 OA
ATOM     17  N   LEU C   4      -9.169  16.133  67.726  1.00 37.32    -0.346 N 
ATOM     18  HN  LEU C   4      -9.155  15.502  68.527  1.00  0.00     0.163 HD
BRANCH  17  19
ATOM     19  CA  LEU C   4      -8.717  17.508  67.878  1.00 39.95     0.177 C 
BRANCH  19  20
ATOM     20  CB  LEU C   4      -9.927  18.426  67.926  1.00 41.97     0.038 C 
BRANCH  20  21
ATOM     21  CG  LEU C   4      -9.759  19.730  67.082  1.00 45.86    -0.020 C 
ATOM     22  CD1 LEU C   4     -10.578  19.681  65.752  1.00 43.70     0.009 C 
ATOM     23  CD2 LEU C   4     -10.130  20.966  67.905  1.00 43.98     0.009 C 
ENDBRANCH  20  21
ENDBRANCH  19  20
BRANCH  19  24
ATOM     24  C   LEU C   4      -7.920  17.623  69.209  1.00 38.38     0.240 C 
HETATM   25  N5  PJE C   5      -7.887  18.911  69.958  1.00 34.60    -0.355 N 
HETATM   26  H5  PJE C   5      -8.387  19.724  69.601  1.00  0.00     0.162 HD
ATOM     27  O   LEU C   4      -7.329  16.680  69.627  1.00 44.55    -0.271 OA
BRANCH  25  28
HETATM   28  C19 PJE C   5      -7.123  19.005  71.221  1.00 40.54     0.085 C 
BRANCH  28  29
HETATM   29  C20 PJE C   5      -8.084  19.203  72.372  1.00 36.98     0.035 C 
BRANCH  29  30
HETATM   30  C21 PJE C   5      -8.651  17.874  72.916  1.00 45.43     0.113 C 
BRANCH  30  31
HETATM   31  C22 PJE C   5     -10.201  17.783  72.854  1.00 52.38     0.259 C 
HETATM   32  O7  PJE C   5     -10.849  17.844  73.849  1.00 57.27    -0.265 OA
BRANCH  31  33
HETATM   33  O   010 C   6     -10.839  17.611  71.595  1.00 52.13    -0.317 OA
BRANCH  33  34
HETATM   34  C   010 C   6     -10.615  16.331  70.998  1.00 63.14     0.217 C 
BRANCH  34  35
HETATM   35  C6  010 C   6     -11.755  15.383  71.455  1.00 66.95    -0.034 A 
HETATM   36  C1  010 C   6     -11.456  14.226  72.167  1.00 68.45     0.009 A 
HETATM   37  C2  010 C   6     -12.480  13.374  72.577  1.00 70.02     0.001 A 
HETATM   38  C3  010 C   6     -13.808  13.682  72.272  1.00 58.91     0.000 A 
HETATM   39  C4  010 C   6     -14.102  14.836  71.559  1.00 57.63     0.001 A 
HETATM   40  C5  010 C   6     -13.082  15.691  71.148  1.00 62.65     0.009 A 
ENDBRANCH  34  35
ENDBRANCH  33  34
ENDBRANCH  31  33
ENDBRANCH  30  31
ENDBRANCH  29  30
ENDBRANCH  28  29
BRANCH  28  41
HETATM   41  C25 PJE C   5      -6.156  20.185  71.154  1.00 30.76     0.034 C 
BRANCH  41  42
HETATM   42  C26 PJE C   5      -5.158  20.063  69.907  1.00 34.19     0.045 C 
HETATM   43  C27 PJE C   5      -4.306  18.660  70.007  1.00 40.55     0.036 C 
HETATM   44  C28 PJE C   5      -2.988  18.940  69.876  1.00 39.60     0.236 C 
HETATM   45  N6  PJE C   5      -2.836  20.434  70.025  1.00 35.08    -0.049 N 
HETATM   46  C29 PJE C   5      -4.323  21.047  69.879  1.00 34.70     0.322 C 
HETATM   47  H62 PJE C   5      -2.363  20.712  70.885  1.00  0.00     0.280 HD
HETATM   48  H61 PJE C   5      -2.163  20.842  69.376  1.00  0.00     0.280 HD
BRANCH  46  49
HETATM   49  O8  PJE C   5      -4.570  21.994  70.921  1.00 31.54    -0.369 OA
HETATM   50  H8  PJE C   5      -4.750  21.543  71.738  1.00  0.00     0.212 HD
ENDBRANCH  46  49
ENDBRANCH  41  42
ENDBRANCH  28  41
ENDBRANCH  25  28
ENDBRANCH  19  24
ENDBRANCH  17  19
ENDBRANCH  11  15
ENDBRANCH   8  11
ENDBRANCH   5   7
ENDBRANCH   1   5
BRANCH   3  51
HETATM   51  C3  02J C   1     -10.993   9.799  70.263  1.00 50.26     0.124 A 
HETATM   52  N2  02J C   1     -10.900   8.470  70.366  1.00 56.79    -0.256 N 
HETATM   53  O1  02J C   1     -11.955   7.988  70.982  1.00 63.01    -0.242 OA
HETATM   54  H2  02J C   1     -10.123   7.911  70.017  1.00  0.00     0.195 HD
HETATM   55  C5  02J C   1     -12.788   8.930  71.316  1.00 63.03     0.075 A 
HETATM   56  C4  02J C   1     -12.234  10.155  70.880  1.00 54.38     0.071 A 
HETATM   57  C6  02J C   1     -14.114   8.748  72.042  1.00 64.36     0.079 C 
ENDBRANCH   3  51
TORSDOF 20
BEGIN_RES HIS A  41
REMARK  2 active torsions:
REMARK  status: ('A' for Active; 'I' for Inactive)
REMARK    1  A    between atoms: CA   and  CB  
REMARK    2  A    between atoms: CB   and  CG  
ROOT
ATOM      1  CA  HIS A  41     -13.820  21.037  73.265  1.00 38.89     0.182 C 
ENDROOT
BRANCH   1   2
ATOM      2  CB  HIS A  41     -13.705  19.545  72.937  1.00 42.38     0.093 C 
BRANCH   2   3
ATOM      3  CG  HIS A  41     -13.891  19.224  71.487  1.00 37.90     0.028 A 
ATOM      4  CD2 HIS A  41     -14.955  18.732  70.810  1.00 37.33     0.114 A 
ATOM      5  NE2 HIS A  41     -14.586  18.636  69.491  1.00 41.88    -0.360 N 
ATOM      6  CE1 HIS A  41     -13.341  19.060  69.361  1.00 41.55     0.180 A 
ATOM      7  HE2 HIS A  41     -15.177  18.292  68.734  1.00  0.00     0.166 HD
ATOM      8  ND1 HIS A  41     -12.899  19.424  70.551  1.00 36.57    -0.354 N 
ATOM      9  HD1 HIS A  41     -11.969  19.794  70.746  1.00  0.00     0.166 HD
ENDBRANCH   2   3
ENDBRANCH   1   2
END_RES HIS A  41
BEGIN_RES CYS A 145
REMARK  1 active torsions:
REMARK  status: ('A' for Active; 'I' for Inactive)
REMARK    3  A    between atoms: CA   and  CB  
ROOT
ATOM     10  CA  CYS A 145     -14.607  19.162  64.101  1.00 29.71     0.186 C 
ENDROOT
BRANCH  10  11
ATOM     11  CB  CYS A 145     -14.100  19.110  65.541  1.00 31.75     0.120 C 
ATOM     12  SG  CYS A 145     -13.574  17.467  66.064  1.00 39.68    -0.095 SA
ENDBRANCH  10  11
END_RES CYS A 145
BEGIN_RES GLN A 189
REMARK  3 active torsions:
REMARK  status: ('A' for Active; 'I' for Inactive)
REMARK    4  A    between atoms: CA   and  CB  
REMARK    5  A    between atoms: CB   and  CG  
REMARK    6  A    between atoms: CG   and  CD  
REMARK       I    between atoms: CD   and  NE2 
ROOT
ATOM     13  CA  GLN A 189     -11.641  10.633  75.105  1.00 38.41     0.177 C 
ENDROOT
BRANCH  13  14
ATOM     14  CB  GLN A 189     -10.259  11.109  74.679  1.00 37.59     0.044 C 
BRANCH  14  15
ATOM     15  CG  GLN A 189      -9.817  10.562  73.331  1.00 45.60     0.105 C 
BRANCH  15  16
ATOM     16  CD  GLN A 189      -8.519   9.784  73.412  1.00 47.27     0.215 C 
ATOM     17  NE2 GLN A 189      -8.234   9.226  74.583  1.00 44.45    -0.370 N 
ATOM     18 2HE2 GLN A 189      -8.846   9.308  75.395  1.00  0.00     0.159 HD
ATOM     19 1HE2 GLN A 189      -7.360   8.702  74.637  1.00  0.00     0.159 HD
ATOM     20  OE1 GLN A 189      -7.782   9.685  72.431  1.00 41.09    -0.274 OA
ENDBRANCH  15  16
ENDBRANCH  14  15
ENDBRANCH  13  14
END_RES GLN A 189
BEGIN_RES ASN A 142
REMARK  2 active torsions:
REMARK  status: ('A' for Active; 'I' for Inactive)
REMARK    7  A    between atoms: CA   and  CB  
REMARK    8  A    between atoms: CB   and  CG  
REMARK       I    between atoms: CG   and  ND2 
ROOT
ATOM     21  CA  ASN A 142      -7.978  15.712  62.559  1.00 43.18     0.185 C 
ENDROOT
BRANCH  21  22
ATOM     22  CB  ASN A 142      -6.512  15.609  62.983  1.00 38.76     0.137 C 
BRANCH  22  23
ATOM     23  CG  ASN A 142      -6.342  15.514  64.488  1.00 50.71     0.217 C 
ATOM     24  ND2 ASN A 142      -6.510  16.638  65.174  1.00 55.08    -0.370 N 
ATOM     25 2HD2 ASN A 142      -6.739  17.526  64.726  1.00  0.00     0.159 HD
ATOM     26 1HD2 ASN A 142      -6.396  16.575  66.186  1.00  0.00     0.159 HD
ATOM     27  OD1 ASN A 142      -6.066  14.443  65.027  1.00 51.97    -0.274 OA
ENDBRANCH  22  23
ENDBRANCH  21  22
END_RES ASN A 142
BEGIN_RES LEU A  27
REMARK  2 active torsions:
REMARK  status: ('A' for Active; 'I' for Inactive)
REMARK    9  A    between atoms: CA   and  CB  
REMARK   10  A    between atoms: CB   and  CG  
ROOT
ATOM     28  CA  LEU A  27     -11.471  23.771  64.549  1.00 37.04     0.177 C 
ENDROOT
BRANCH  28  29
ATOM     29  CB  LEU A  27     -12.225  22.902  65.570  1.00 37.70     0.038 C 
BRANCH  29  30
ATOM     30  CG  LEU A  27     -12.671  23.458  66.922  1.00 36.32    -0.020 C 
ATOM     31  CD1 LEU A  27     -13.587  24.660  66.758  1.00 32.79     0.009 C 
ATOM     32  CD2 LEU A  27     -13.372  22.361  67.710  1.00 31.17     0.009 C 
ENDBRANCH  29  30
ENDBRANCH  28  29
END_RES LEU A  27
BEGIN_RES MET A  49
REMARK  3 active torsions:
REMARK  status: ('A' for Active; 'I' for Inactive)
REMARK   11  A    between atoms: CA   and  CB  
REMARK   12  A    between atoms: CB   and  CG  
REMARK   13  A    between atoms: CG   and  SD  
ROOT
ATOM     33  CA  MET A  49      -9.418  15.600  76.823  1.00 61.58     0.177 C 
ENDROOT
BRANCH  33  34
ATOM     34  CB  MET A  49      -8.930  15.410  75.386  1.00 62.15     0.045 C 
BRANCH  34  35
ATOM     35  CG  MET A  49      -7.594  14.691  75.286  1.00 60.24     0.076 C 
BRANCH  35  36
ATOM     36  SD  MET A  49      -7.037  14.453  73.588  1.00 77.15    -0.173 SA
ATOM     37  CE  MET A  49      -6.376  12.790  73.682  1.00 60.34     0.089 C 
ENDBRANCH  35  36
ENDBRANCH  34  35
ENDBRANCH  33  34
END_RES MET A  49
BEGIN_RES GLU A 166
REMARK  3 active torsions:
REMARK  status: ('A' for Active; 'I' for Inactive)
REMARK   14  A    between atoms: CA   and  CB  
REMARK   15  A    between atoms: CB   and  CG  
REMARK   16  A    between atoms: CG   and  CD  
ROOT
ATOM     38  CA  GLU A 166     -14.746   9.219  66.167  1.00 28.52     0.177 C 
ENDROOT
BRANCH  38  39
ATOM     39  CB  GLU A 166     -13.578   9.064  65.189  1.00 29.90     0.045 C 
BRANCH  39  40
ATOM     40  CG  GLU A 166     -13.619   7.827  64.312  1.00 36.08     0.116 C 
BRANCH  40  41
ATOM     41  CD  GLU A 166     -12.460   7.786  63.334  1.00 45.17     0.172 C 
ATOM     42  OE2 GLU A 166     -12.109   8.851  62.783  1.00 40.54    -0.648 OA
ATOM     43  OE1 GLU A 166     -11.893   6.692  63.123  1.00 50.70    -0.648 OA
ENDBRANCH  40  41
ENDBRANCH  39  40
ENDBRANCH  38  39
END_RES GLU A 166
BEGIN_RES HIS A 163
REMARK  2 active torsions:
REMARK  status: ('A' for Active; 'I' for Inactive)
REMARK   17  A    between atoms: CA   and  CB  
REMARK   18  A    between atoms: CB   and  CG  
ROOT
ATOM     44  CA  HIS A 163     -19.055  16.637  64.100  1.00 27.27     0.182 C 
ENDROOT
BRANCH  44  45
ATOM     45  CB  HIS A 163     -18.129  16.377  62.914  1.00 26.00     0.093 C 
BRANCH  45  46
ATOM     46  CG  HIS A 163     -17.088  15.338  63.187  1.00 26.66     0.028 A 
ATOM     47  ND1 HIS A 163     -15.747  15.640  63.288  1.00 26.97    -0.354 N 
ATOM     48  CE1 HIS A 163     -15.065  14.534  63.525  1.00 30.44     0.180 A 
ATOM     49  HD1 HIS A 163     -15.343  16.572  63.193  1.00  0.00     0.166 HD
ATOM     50  NE2 HIS A 163     -15.916  13.524  63.578  1.00 30.00    -0.360 N 
ATOM     51  CD2 HIS A 163     -17.187  14.001  63.369  1.00 29.24     0.114 A 
ATOM     52  HE2 HIS A 163     -15.669  12.549  63.746  1.00  0.00     0.166 HD
ENDBRANCH  45  46
ENDBRANCH  44  45
END_RES HIS A 163
BEGIN_RES HIS A 172
REMARK  2 active torsions:
REMARK  status: ('A' for Active; 'I' for Inactive)
REMARK   19  A    between atoms: CA   and  CB  
REMARK   20  A    between atoms: CB   and  CG  
ROOT
ATOM     53  CA  HIS A 172     -18.444   9.111  64.049  1.00 29.85     0.182 C 
ENDROOT
BRANCH  53  54
ATOM     54  CB  HIS A 172     -18.188  10.085  62.898  1.00 26.76     0.093 C 
BRANCH  54  55
ATOM     55  CG  HIS A 172     -16.860   9.891  62.235  1.00 28.76     0.028 A 
ATOM     56  CD2 HIS A 172     -15.622  10.315  62.579  1.00 29.36     0.114 A 
ATOM     57  NE2 HIS A 172     -14.752   9.846  61.625  1.00 33.77    -0.360 N 
ATOM     58  CE1 HIS A 172     -15.432   9.153  60.728  1.00 32.44     0.180 A 
ATOM     59  HE2 HIS A 172     -13.745  10.007  61.611  1.00  0.00     0.166 HD
ATOM     60  ND1 HIS A 172     -16.707   9.161  61.075  1.00 29.32    -0.354 N 
ATOM     61  HD1 HIS A 172     -17.461   8.701  60.564  1.00  0.00     0.166 HD
ENDBRANCH  54  55
ENDBRANCH  53  54
END_RES HIS A 172
BEGIN_RES THR A  26
REMARK  2 active torsions:
REMARK  status: ('A' for Active; 'I' for Inactive)
REMARK   21  A    between atoms: CA   and  CB  
REMARK   22  A    between atoms: CB   and  OG1 
ROOT
ATOM     62  CA  THR A  26      -8.224  25.031  66.060  1.00 43.98     0.205 C 
ENDROOT
BRANCH  62  63
ATOM     63  CB  THR A  26      -7.184  25.490  65.034  1.00 45.90     0.146 C 
ATOM     64  CG2 THR A  26      -7.852  25.982  63.748  1.00 47.20     0.042 C 
BRANCH  63  65
ATOM     65  OG1 THR A  26      -6.381  26.536  65.592  1.00 50.51    -0.393 OA
ATOM     66  HG1 THR A  26      -5.733  26.819  64.956  1.00  0.00     0.210 HD
ENDBRANCH  63  65
ENDBRANCH  62  63
END_RES THR A  26
ENDMDL
MODEL 6
REMARK VINA RESULT:      -7.5      2.650      7.562
REMARK  20 active torsions:
REMARK  status: ('A' for Active; 'I' for Inactive)
REMARK       I    between atoms: C41_31  and  N_1 
REMARK    1  A    between atoms: N_1  and  CA_3 
REMARK    2  A    between atoms: CA_3  and  C_4 
REMARK       I    between atoms: C_4  and  N_7 
REMARK    3  A    between atoms: N_7  and  CA_9 
REMARK    4  A    between atoms: CA_9  and  CB_12 
REMARK    5  A    between atoms: CA_9  and  C_10 
REMARK       I    between atoms: C_10  and  N_15 
REMARK    6  A    between atoms: N_15  and  CA_17 
REMARK    7  A    between atoms: CA_17  and  CB_20 
REMARK    8  A    between atoms: CA_17  and  C_18 
REMARK       I    between atoms: C_18  and  N5_33 
REMARK    9  A    between atoms: CB_20  and  CG_21 
REMARK   10  A    between atoms: C3_27  and  C41_31 
REMARK   11  A    between atoms: N5_33  and  C19_41 
REMARK   12  A    between atoms: O8_39  and  C29_49 
REMARK   13  A    between atoms: C19_41  and  C20_42 
REMARK   14  A    between atoms: C19_41  and  C25_45 
REMARK   15  A    between atoms: C20_42  and  C21_43 
REMARK   16  A    between atoms: C21_43  and  C22_44 
REMARK   17  A    between atoms: C22_44  and  O_51 
REMARK   18  A    between atoms: C25_45  and  C26_46 
REMARK   19  A    between atoms: C_50  and  O_51 
REMARK   20  A    between atoms: C_50  and  C6_57 
ROOT
ATOM      1  N   ALA C   2      -9.350   9.555  61.662  1.00 41.65    -0.343 N 
ATOM      2  HN  ALA C   2      -9.649  10.256  60.985  1.00  0.00     0.163 HD
HETATM    3  C41 02J C   1      -9.998   8.242  61.701  1.00 47.56     0.270 C 
HETATM    4  O42 02J C   1      -9.647   7.431  62.486  1.00 47.13    -0.266 OA
ENDROOT
BRANCH   1   5
ATOM      5  CA  ALA C   2      -8.276   9.851  62.596  1.00 42.30     0.172 C 
ATOM      6  CB  ALA C   2      -6.943   9.756  61.899  1.00 36.98     0.042 C 
BRANCH   5   7
ATOM      7  C   ALA C   2      -8.474  11.296  63.152  1.00 41.96     0.240 C 
ATOM      8  N   VAL C   3      -9.527  11.559  64.102  1.00 34.91    -0.346 N 
ATOM      9  HN  VAL C   3     -10.139  10.803  64.409  1.00  0.00     0.163 HD
ATOM     10  O   ALA C   2      -7.772  12.163  62.798  1.00 41.95    -0.271 OA
BRANCH   8  11
ATOM     11  CA  VAL C   3      -9.719  12.915  64.625  1.00 36.29     0.180 C 
BRANCH  11  12
ATOM     12  CB  VAL C   3     -11.231  13.279  64.572  1.00 37.53     0.009 C 
ATOM     13  CG1 VAL C   3     -11.442  14.825  64.519  1.00 40.26     0.012 C 
ATOM     14  CG2 VAL C   3     -11.936  12.570  63.372  1.00 43.10     0.012 C 
ENDBRANCH  11  12
BRANCH  11  15
ATOM     15  C   VAL C   3      -9.238  12.976  66.051  1.00 40.78     0.241 C 
ATOM     16  O   VAL C   3      -9.289  12.008  66.737  1.00 36.69    -0.271 OA
ATOM     17  N   LEU C   4      -8.694  14.271  66.600  1.00 37.32    -0.346 N 
ATOM     18  HN  LEU C   4      -8.651  15.096  66.002  1.00  0.00     0.163 HD
BRANCH  17  19
ATOM     19  CA  LEU C   4      -8.230  14.349  67.977  1.00 39.95     0.177 C 
BRANCH  19  20
ATOM     20  CB  LEU C   4      -6.827  13.768  68.061  1.00 41.97     0.038 C 
BRANCH  20  21
ATOM     21  CG  LEU C   4      -6.614  12.821  69.285  1.00 45.86    -0.020 C 
ATOM     22  CD1 LEU C   4      -5.632  13.429  70.337  1.00 43.70     0.009 C 
ATOM     23  CD2 LEU C   4      -7.952  12.458  69.936  1.00 43.98     0.009 C 
ENDBRANCH  20  21
ENDBRANCH  19  20
BRANCH  19  24
ATOM     24  C   LEU C   4      -8.204  15.843  68.407  1.00 38.38     0.240 C 
HETATM   25  N5  PJE C   5      -8.546  16.915  67.429  1.00 34.60    -0.355 N 
HETATM   26  H5  PJE C   5      -8.800  16.672  66.472  1.00  0.00     0.162 HD
ATOM     27  O   LEU C   4      -7.902  16.133  69.520  1.00 44.55    -0.271 OA
BRANCH  25  28
HETATM   28  C19 PJE C   5      -8.515  18.331  67.853  1.00 40.54     0.085 C 
BRANCH  28  29
HETATM   29  C20 PJE C   5      -9.919  18.893  67.824  1.00 36.98     0.035 C 
BRANCH  29  30
HETATM   30  C21 PJE C   5     -10.303  19.615  69.133  1.00 45.43     0.113 C 
BRANCH  30  31
HETATM   31  C22 PJE C   5     -10.377  18.675  70.369  1.00 52.38     0.259 C 
HETATM   32  O7  PJE C   5      -9.609  18.798  71.267  1.00 57.27    -0.265 OA
BRANCH  31  33
HETATM   33  O   010 C   6     -11.368  17.655  70.409  1.00 52.13    -0.317 OA
BRANCH  33  34
HETATM   34  C   010 C   6     -10.967  16.482  71.122  1.00 63.14     0.217 C 
BRANCH  34  35
HETATM   35  C6  010 C   6     -11.320  15.248  70.251  1.00 66.95    -0.034 A 
HETATM   36  C1  010 C   6     -11.294  13.972  70.806  1.00 68.45     0.009 A 
HETATM   37  C2  010 C   6     -11.610  12.863  70.023  1.00 70.02     0.001 A 
HETATM   38  C3  010 C   6     -11.951  13.033  68.678  1.00 58.91     0.000 A 
HETATM   39  C4  010 C   6     -11.973  14.307  68.128  1.00 57.63     0.001 A 
HETATM   40  C5  010 C   6     -11.659  15.419  68.907  1.00 62.65     0.009 A 
ENDBRANCH  34  35
ENDBRANCH  33  34
ENDBRANCH  31  33
ENDBRANCH  30  31
ENDBRANCH  29  30
ENDBRANCH  28  29
BRANCH  28  41
HETATM   41  C25 PJE C   5      -7.625  19.135  66.907  1.00 30.76     0.034 C 
BRANCH  41  42
HETATM   42  C26 PJE C   5      -6.194  19.443  67.559  1.00 34.19     0.045 C 
HETATM   43  C27 PJE C   5      -6.254  19.197  69.184  1.00 40.55     0.036 C 
HETATM   44  C28 PJE C   5      -5.766  20.295  69.810  1.00 39.60     0.236 C 
HETATM   45  N6  PJE C   5      -5.683  21.392  68.777  1.00 35.08    -0.049 N 
HETATM   46  C29 PJE C   5      -5.836  20.665  67.343  1.00 34.70     0.322 C 
HETATM   47  H62 PJE C   5      -6.357  22.143  68.926  1.00  0.00     0.280 HD
HETATM   48  H61 PJE C   5      -4.842  21.963  68.856  1.00  0.00     0.280 HD
BRANCH  46  49
HETATM   49  O8  PJE C   5      -6.779  21.368  66.532  1.00 31.54    -0.369 OA
HETATM   50  H8  PJE C   5      -7.665  21.142  66.789  1.00  0.00     0.212 HD
ENDBRANCH  46  49
ENDBRANCH  41  42
ENDBRANCH  28  41
ENDBRANCH  25  28
ENDBRANCH  19  24
ENDBRANCH  17  19
ENDBRANCH  11  15
ENDBRANCH   8  11
ENDBRANCH   5   7
ENDBRANCH   1   5
BRANCH   3  51
HETATM   51  C3  02J C   1     -11.136   7.916  60.721  1.00 50.26     0.124 A 
HETATM   52  N2  02J C   1     -11.820   8.782  59.969  1.00 56.79    -0.256 N 
HETATM   53  O1  02J C   1     -12.720   8.149  59.252  1.00 63.01    -0.242 OA
HETATM   54  H2  02J C   1     -11.666   9.790  59.954  1.00  0.00     0.195 HD
HETATM   55  C5  02J C   1     -12.693   6.868  59.472  1.00 63.03     0.075 A 
HETATM   56  C4  02J C   1     -11.680   6.626  60.427  1.00 54.38     0.071 A 
HETATM   57  C6  02J C   1     -13.588   5.821  58.822  1.00 64.36     0.079 C 
ENDBRANCH   3  51
TORSDOF 20
BEGIN_RES HIS A  41
REMARK  2 active torsions:
REMARK  status: ('A' for Active; 'I' for Inactive)
REMARK    1  A    between atoms: CA   and  CB  
REMARK    2  A    between atoms: CB   and  CG  
ROOT
ATOM      1  CA  HIS A  41     -13.820  21.037  73.265  1.00 38.89     0.182 C 
ENDROOT
BRANCH   1   2
ATOM      2  CB  HIS A  41     -13.705  19.545  72.937  1.00 42.38     0.093 C 
BRANCH   2   3
ATOM      3  CG  HIS A  41     -14.272  19.169  71.604  1.00 37.90     0.028 A 
ATOM      4  CD2 HIS A  41     -15.360  18.436  71.270  1.00 37.33     0.114 A 
ATOM      5  NE2 HIS A  41     -15.424  18.408  69.899  1.00 41.88    -0.360 N 
ATOM      6  CE1 HIS A  41     -14.414  19.104  69.408  1.00 41.55     0.180 A 
ATOM      7  HE2 HIS A  41     -16.136  17.928  69.348  1.00  0.00     0.166 HD
ATOM      8  ND1 HIS A  41     -13.704  19.577  70.416  1.00 36.57    -0.354 N 
ATOM      9  HD1 HIS A  41     -12.867  20.153  70.329  1.00  0.00     0.166 HD
ENDBRANCH   2   3
ENDBRANCH   1   2
END_RES HIS A  41
BEGIN_RES CYS A 145
REMARK  1 active torsions:
REMARK  status: ('A' for Active; 'I' for Inactive)
REMARK    3  A    between atoms: CA   and  CB  
ROOT
ATOM     10  CA  CYS A 145     -14.607  19.162  64.101  1.00 29.71     0.186 C 
ENDROOT
BRANCH  10  11
ATOM     11  CB  CYS A 145     -14.100  19.110  65.541  1.00 31.75     0.120 C 
ATOM     12  SG  CYS A 145     -13.696  17.447  66.106  1.00 39.68    -0.095 SA
ENDBRANCH  10  11
END_RES CYS A 145
BEGIN_RES GLN A 189
REMARK  3 active torsions:
REMARK  status: ('A' for Active; 'I' for Inactive)
REMARK    4  A    between atoms: CA   and  CB  
REMARK    5  A    between atoms: CB   and  CG  
REMARK    6  A    between atoms: CG   and  CD  
REMARK       I    between atoms: CD   and  NE2 
ROOT
ATOM     13  CA  GLN A 189     -11.641  10.633  75.105  1.00 38.41     0.177 C 
ENDROOT
BRANCH  13  14
ATOM     14  CB  GLN A 189     -10.259  11.109  74.679  1.00 37.59     0.044 C 
BRANCH  14  15
ATOM     15  CG  GLN A 189     -10.054  11.106  73.173  1.00 45.60     0.105 C 
BRANCH  15  16
ATOM     16  CD  GLN A 189     -10.296   9.745  72.551  1.00 47.27     0.215 C 
ATOM     17  NE2 GLN A 189     -11.275   9.668  71.657  1.00 44.45    -0.370 N 
ATOM     18 2HE2 GLN A 189     -11.844  10.472  71.392  1.00  0.00     0.159 HD
ATOM     19 1HE2 GLN A 189     -11.439   8.752  71.239  1.00  0.00     0.159 HD
ATOM     20  OE1 GLN A 189      -9.610   8.774  72.872  1.00 41.09    -0.274 OA
ENDBRANCH  15  16
ENDBRANCH  14  15
ENDBRANCH  13  14
END_RES GLN A 189
BEGIN_RES ASN A 142
REMARK  2 active torsions:
REMARK  status: ('A' for Active; 'I' for Inactive)
REMARK    7  A    between atoms: CA   and  CB  
REMARK    8  A    between atoms: CB   and  CG  
REMARK       I    between atoms: CG   and  ND2 
ROOT
ATOM     21  CA  ASN A 142      -7.978  15.712  62.559  1.00 43.18     0.185 C 
ENDROOT
BRANCH  21  22
ATOM     22  CB  ASN A 142      -6.512  15.609  62.983  1.00 38.76     0.137 C 
BRANCH  22  23
ATOM     23  CG  ASN A 142      -6.349  15.182  64.430  1.00 50.71     0.217 C 
ATOM     24  ND2 ASN A 142      -5.955  13.931  64.636  1.00 55.08    -0.370 N 
ATOM     25 2HD2 ASN A 142      -5.769  13.280  63.872  1.00  0.00     0.159 HD
ATOM     26 1HD2 ASN A 142      -5.846  13.644  65.609  1.00  0.00     0.159 HD
ATOM     27  OD1 ASN A 142      -6.573  15.967  65.350  1.00 51.97    -0.274 OA
ENDBRANCH  22  23
ENDBRANCH  21  22
END_RES ASN A 142
BEGIN_RES LEU A  27
REMARK  2 active torsions:
REMARK  status: ('A' for Active; 'I' for Inactive)
REMARK    9  A    between atoms: CA   and  CB  
REMARK   10  A    between atoms: CB   and  CG  
ROOT
ATOM     28  CA  LEU A  27     -11.471  23.771  64.549  1.00 37.04     0.177 C 
ENDROOT
BRANCH  28  29
ATOM     29  CB  LEU A  27     -12.225  22.902  65.570  1.00 37.70     0.038 C 
BRANCH  29  30
ATOM     30  CG  LEU A  27     -12.570  23.421  66.966  1.00 36.32    -0.020 C 
ATOM     31  CD1 LEU A  27     -13.834  24.266  66.952  1.00 32.79     0.009 C 
ATOM     32  CD2 LEU A  27     -12.730  22.243  67.915  1.00 31.17     0.009 C 
ENDBRANCH  29  30
ENDBRANCH  28  29
END_RES LEU A  27
BEGIN_RES MET A  49
REMARK  3 active torsions:
REMARK  status: ('A' for Active; 'I' for Inactive)
REMARK   11  A    between atoms: CA   and  CB  
REMARK   12  A    between atoms: CB   and  CG  
REMARK   13  A    between atoms: CG   and  SD  
ROOT
ATOM     33  CA  MET A  49      -9.418  15.600  76.823  1.00 61.58     0.177 C 
ENDROOT
BRANCH  33  34
ATOM     34  CB  MET A  49      -8.930  15.410  75.386  1.00 62.15     0.045 C 
BRANCH  34  35
ATOM     35  CG  MET A  49      -9.521  16.410  74.405  1.00 60.24     0.076 C 
BRANCH  35  36
ATOM     36  SD  MET A  49     -11.146  17.017  74.896  1.00 77.15    -0.173 SA
ATOM     37  CE  MET A  49     -12.182  15.644  74.392  1.00 60.34     0.089 C 
ENDBRANCH  35  36
ENDBRANCH  34  35
ENDBRANCH  33  34
END_RES MET A  49
BEGIN_RES GLU A 166
REMARK  3 active torsions:
REMARK  status: ('A' for Active; 'I' for Inactive)
REMARK   14  A    between atoms: CA   and  CB  
REMARK   15  A    between atoms: CB   and  CG  
REMARK   16  A    between atoms: CG   and  CD  
ROOT
ATOM     38  CA  GLU A 166     -14.746   9.219  66.167  1.00 28.52     0.177 C 
ENDROOT
BRANCH  38  39
ATOM     39  CB  GLU A 166     -13.578   9.064  65.189  1.00 29.90     0.045 C 
BRANCH  39  40
ATOM     40  CG  GLU A 166     -12.256   9.644  65.653  1.00 36.08     0.116 C 
BRANCH  40  41
ATOM     41  CD  GLU A 166     -11.149   8.606  65.655  1.00 45.17     0.172 C 
ATOM     42  OE2 GLU A 166     -11.467   7.399  65.706  1.00 40.54    -0.648 OA
ATOM     43  OE1 GLU A 166      -9.963   8.995  65.594  1.00 50.70    -0.648 OA
ENDBRANCH  40  41
ENDBRANCH  39  40
ENDBRANCH  38  39
END_RES GLU A 166
BEGIN_RES HIS A 163
REMARK  2 active torsions:
REMARK  status: ('A' for Active; 'I' for Inactive)
REMARK   17  A    between atoms: CA   and  CB  
REMARK   18  A    between atoms: CB   and  CG  
ROOT
ATOM     44  CA  HIS A 163     -19.055  16.637  64.100  1.00 27.27     0.182 C 
ENDROOT
BRANCH  44  45
ATOM     45  CB  HIS A 163     -18.129  16.377  62.914  1.00 26.00     0.093 C 
BRANCH  45  46
ATOM     46  CG  HIS A 163     -17.127  15.295  63.166  1.00 26.66     0.028 A 
ATOM     47  ND1 HIS A 163     -15.772  15.540  63.235  1.00 26.97    -0.354 N 
ATOM     48  CE1 HIS A 163     -15.133  14.406  63.460  1.00 30.44     0.180 A 
ATOM     49  HD1 HIS A 163     -15.332  16.454  63.130  1.00  0.00     0.166 HD
ATOM     50  NE2 HIS A 163     -16.025  13.434  63.534  1.00 30.00    -0.360 N 
ATOM     51  CD2 HIS A 163     -17.279  13.963  63.353  1.00 29.24     0.114 A 
ATOM     52  HE2 HIS A 163     -15.816  12.449  63.699  1.00  0.00     0.166 HD
ENDBRANCH  45  46
ENDBRANCH  44  45
END_RES HIS A 163
BEGIN_RES HIS A 172
REMARK  2 active torsions:
REMARK  status: ('A' for Active; 'I' for Inactive)
REMARK   19  A    between atoms: CA   and  CB  
REMARK   20  A    between atoms: CB   and  CG  
ROOT
ATOM     53  CA  HIS A 172     -18.444   9.111  64.049  1.00 29.85     0.182 C 
ENDROOT
BRANCH  53  54
ATOM     54  CB  HIS A 172     -18.188  10.085  62.898  1.00 26.76     0.093 C 
BRANCH  54  55
ATOM     55  CG  HIS A 172     -16.946   9.778  62.121  1.00 28.76     0.028 A 
ATOM     56  CD2 HIS A 172     -16.769   9.149  60.936  1.00 29.36     0.114 A 
ATOM     57  NE2 HIS A 172     -15.420   9.147  60.675  1.00 33.77    -0.360 N 
ATOM     58  CE1 HIS A 172     -14.791   9.759  61.663  1.00 32.44     0.180 A 
ATOM     59  HE2 HIS A 172     -14.977   8.739  59.852  1.00  0.00     0.166 HD
ATOM     60  ND1 HIS A 172     -15.690  10.154  62.548  1.00 29.32    -0.354 N 
ATOM     61  HD1 HIS A 172     -15.486  10.657  63.412  1.00  0.00     0.166 HD
ENDBRANCH  54  55
ENDBRANCH  53  54
END_RES HIS A 172
BEGIN_RES THR A  26
REMARK  2 active torsions:
REMARK  status: ('A' for Active; 'I' for Inactive)
REMARK   21  A    between atoms: CA   and  CB  
REMARK   22  A    between atoms: CB   and  OG1 
ROOT
ATOM     62  CA  THR A  26      -8.224  25.031  66.060  1.00 43.98     0.205 C 
ENDROOT
BRANCH  62  63
ATOM     63  CB  THR A  26      -7.184  25.490  65.034  1.00 45.90     0.146 C 
ATOM     64  CG2 THR A  26      -7.851  26.140  63.820  1.00 47.20     0.042 C 
BRANCH  63  65
ATOM     65  OG1 THR A  26      -6.279  26.418  65.642  1.00 50.51    -0.393 OA
ATOM     66  HG1 THR A  26      -6.206  26.235  66.572  1.00  0.00     0.210 HD
ENDBRANCH  63  65
ENDBRANCH  62  63
END_RES THR A  26
ENDMDL
MODEL 7
REMARK VINA RESULT:      -7.5      2.505      5.757
REMARK  20 active torsions:
REMARK  status: ('A' for Active; 'I' for Inactive)
REMARK       I    between atoms: C41_31  and  N_1 
REMARK    1  A    between atoms: N_1  and  CA_3 
REMARK    2  A    between atoms: CA_3  and  C_4 
REMARK       I    between atoms: C_4  and  N_7 
REMARK    3  A    between atoms: N_7  and  CA_9 
REMARK    4  A    between atoms: CA_9  and  CB_12 
REMARK    5  A    between atoms: CA_9  and  C_10 
REMARK       I    between atoms: C_10  and  N_15 
REMARK    6  A    between atoms: N_15  and  CA_17 
REMARK    7  A    between atoms: CA_17  and  CB_20 
REMARK    8  A    between atoms: CA_17  and  C_18 
REMARK       I    between atoms: C_18  and  N5_33 
REMARK    9  A    between atoms: CB_20  and  CG_21 
REMARK   10  A    between atoms: C3_27  and  C41_31 
REMARK   11  A    between atoms: N5_33  and  C19_41 
REMARK   12  A    between atoms: O8_39  and  C29_49 
REMARK   13  A    between atoms: C19_41  and  C20_42 
REMARK   14  A    between atoms: C19_41  and  C25_45 
REMARK   15  A    between atoms: C20_42  and  C21_43 
REMARK   16  A    between atoms: C21_43  and  C22_44 
REMARK   17  A    between atoms: C22_44  and  O_51 
REMARK   18  A    between atoms: C25_45  and  C26_46 
REMARK   19  A    between atoms: C_50  and  O_51 
REMARK   20  A    between atoms: C_50  and  C6_57 
ROOT
ATOM      1  N   ALA C   2      -8.558  10.595  67.420  1.00 41.65    -0.343 N 
ATOM      2  HN  ALA C   2      -8.615   9.608  67.168  1.00  0.00     0.163 HD
HETATM    3  C41 02J C   1      -9.217  11.086  68.633  1.00 47.56     0.270 C 
HETATM    4  O42 02J C   1      -9.147  12.229  68.924  1.00 47.13    -0.266 OA
ENDROOT
BRANCH   1   5
ATOM      5  CA  ALA C   2      -7.822  11.524  66.579  1.00 42.30     0.172 C 
ATOM      6  CB  ALA C   2      -6.782  10.783  65.778  1.00 36.98     0.042 C 
BRANCH   5   7
ATOM      7  C   ALA C   2      -8.822  12.231  65.611  1.00 41.96     0.240 C 
ATOM      8  N   VAL C   3      -9.505  13.427  66.038  1.00 34.91    -0.346 N 
ATOM      9  HN  VAL C   3      -9.334  13.809  66.968  1.00  0.00     0.163 HD
ATOM     10  O   ALA C   2      -9.019  11.790  64.545  1.00 41.95    -0.271 OA
BRANCH   8  11
ATOM     11  CA  VAL C   3     -10.448  14.094  65.134  1.00 36.29     0.180 C 
BRANCH  11  12
ATOM     12  CB  VAL C   3     -11.901  13.681  65.508  1.00 37.53     0.009 C 
ATOM     13  CG1 VAL C   3     -12.388  12.472  64.648  1.00 40.26     0.012 C 
ATOM     14  CG2 VAL C   3     -12.020  13.373  67.035  1.00 43.10     0.012 C 
ENDBRANCH  11  12
BRANCH  11  15
ATOM     15  C   VAL C   3     -10.300  15.587  65.266  1.00 40.78     0.241 C 
ATOM     16  O   VAL C   3     -10.905  16.309  64.545  1.00 36.69    -0.271 OA
ATOM     17  N   LEU C   4      -9.380  16.155  66.318  1.00 37.32    -0.346 N 
ATOM     18  HN  LEU C   4      -8.867  15.526  66.935  1.00  0.00     0.163 HD
BRANCH  17  19
ATOM     19  CA  LEU C   4      -9.222  17.595  66.456  1.00 39.95     0.177 C 
BRANCH  19  20
ATOM     20  CB  LEU C   4     -10.165  18.096  67.538  1.00 41.97     0.038 C 
BRANCH  20  21
ATOM     21  CG  LEU C   4     -10.824  19.473  67.207  1.00 45.86    -0.020 C 
ATOM     22  CD1 LEU C   4     -10.317  20.610  68.151  1.00 43.70     0.009 C 
ATOM     23  CD2 LEU C   4     -10.603  19.845  65.738  1.00 43.98     0.009 C 
ENDBRANCH  20  21
ENDBRANCH  19  20
BRANCH  19  24
ATOM     24  C   LEU C   4      -7.751  17.895  66.864  1.00 38.38     0.240 C 
HETATM   25  N5  PJE C   5      -7.205  19.277  66.749  1.00 34.60    -0.355 N 
HETATM   26  H5  PJE C   5      -7.794  20.033  66.403  1.00  0.00     0.162 HD
ATOM     27  O   LEU C   4      -7.058  17.016  67.263  1.00 44.55    -0.271 OA
BRANCH  25  28
HETATM   28  C19 PJE C   5      -5.804  19.545  67.140  1.00 40.54     0.085 C 
BRANCH  28  29
HETATM   29  C20 PJE C   5      -5.787  20.334  68.430  1.00 36.98     0.035 C 
BRANCH  29  30
HETATM   30  C21 PJE C   5      -5.693  19.433  69.681  1.00 45.43     0.113 C 
BRANCH  30  31
HETATM   31  C22 PJE C   5      -6.621  19.880  70.846  1.00 52.38     0.259 C 
HETATM   32  O7  PJE C   5      -6.161  20.339  71.841  1.00 57.27    -0.265 OA
BRANCH  31  33
HETATM   33  O   010 C   6      -8.028  19.723  70.715  1.00 52.13    -0.317 OA
BRANCH  33  34
HETATM   34  C   010 C   6      -8.633  18.980  71.777  1.00 63.14     0.217 C 
BRANCH  34  35
HETATM   35  C6  010 C   6      -9.334  17.742  71.158  1.00 66.95    -0.034 A 
HETATM   36  C1  010 C   6     -10.720  17.630  71.205  1.00 68.45     0.009 A 
HETATM   37  C2  010 C   6     -11.351  16.519  70.649  1.00 70.02     0.001 A 
HETATM   38  C3  010 C   6     -10.590  15.514  70.045  1.00 58.91     0.000 A 
HETATM   39  C4  010 C   6      -9.207  15.628  70.003  1.00 57.63     0.001 A 
HETATM   40  C5  010 C   6      -8.572  16.739  70.556  1.00 62.65     0.009 A 
ENDBRANCH  34  35
ENDBRANCH  33  34
ENDBRANCH  31  33
ENDBRANCH  30  31
ENDBRANCH  29  30
ENDBRANCH  28  29
BRANCH  28  41
HETATM   41  C25 PJE C   5      -5.106  20.347  66.043  1.00 30.76     0.034 C 
BRANCH  41  42
HETATM   42  C26 PJE C   5      -5.074  19.549  64.655  1.00 34.19     0.045 C 
HETATM   43  C27 PJE C   5      -3.543  19.528  64.056  1.00 40.55     0.036 C 
HETATM   44  C28 PJE C   5      -3.571  19.953  62.770  1.00 39.60     0.236 C 
HETATM   45  N6  PJE C   5      -4.929  20.572  62.540  1.00 35.08    -0.049 N 
HETATM   46  C29 PJE C   5      -5.848  20.101  63.781  1.00 34.70     0.322 C 
HETATM   47  H62 PJE C   5      -4.899  21.584  62.415  1.00  0.00     0.280 HD
HETATM   48  H61 PJE C   5      -5.329  20.347  61.629  1.00  0.00     0.280 HD
BRANCH  46  49
HETATM   49  O8  PJE C   5      -6.559  21.217  64.318  1.00 31.54    -0.369 OA
HETATM   50  H8  PJE C   5      -6.782  21.829  63.626  1.00  0.00     0.212 HD
ENDBRANCH  46  49
ENDBRANCH  41  42
ENDBRANCH  28  41
ENDBRANCH  25  28
ENDBRANCH  19  24
ENDBRANCH  17  19
ENDBRANCH  11  15
ENDBRANCH   8  11
ENDBRANCH   5   7
ENDBRANCH   1   5
BRANCH   3  51
HETATM   51  C3  02J C   1     -10.000  10.115  69.530  1.00 50.26     0.124 A 
HETATM   52  N2  02J C   1      -9.531   9.012  70.121  1.00 56.79    -0.256 N 
HETATM   53  O1  02J C   1     -10.482   8.427  70.812  1.00 63.01    -0.242 OA
HETATM   54  H2  02J C   1      -8.572   8.674  70.045  1.00  0.00     0.195 HD
HETATM   55  C5  02J C   1     -11.604   9.079  70.730  1.00 63.03     0.075 A 
HETATM   56  C4  02J C   1     -11.378  10.204  69.905  1.00 54.38     0.071 A 
HETATM   57  C6  02J C   1     -12.919   8.701  71.398  1.00 64.36     0.079 C 
ENDBRANCH   3  51
TORSDOF 20
BEGIN_RES HIS A  41
REMARK  2 active torsions:
REMARK  status: ('A' for Active; 'I' for Inactive)
REMARK    1  A    between atoms: CA   and  CB  
REMARK    2  A    between atoms: CB   and  CG  
ROOT
ATOM      1  CA  HIS A  41     -13.820  21.037  73.265  1.00 38.89     0.182 C 
ENDROOT
BRANCH   1   2
ATOM      2  CB  HIS A  41     -13.705  19.545  72.937  1.00 42.38     0.093 C 
BRANCH   2   3
ATOM      3  CG  HIS A  41     -14.061  19.203  71.524  1.00 37.90     0.028 A 
ATOM      4  CD2 HIS A  41     -15.007  18.378  71.016  1.00 37.33     0.114 A 
ATOM      5  NE2 HIS A  41     -14.904  18.440  69.648  1.00 41.88    -0.360 N 
ATOM      6  CE1 HIS A  41     -13.933  19.277  69.327  1.00 41.55     0.180 A 
ATOM      7  HE2 HIS A  41     -15.483  17.922  68.986  1.00  0.00     0.166 HD
ATOM      8  ND1 HIS A  41     -13.410  19.754  70.442  1.00 36.57    -0.354 N 
ATOM      9  HD1 HIS A  41     -12.644  20.425  70.493  1.00  0.00     0.166 HD
ENDBRANCH   2   3
ENDBRANCH   1   2
END_RES HIS A  41
BEGIN_RES CYS A 145
REMARK  1 active torsions:
REMARK  status: ('A' for Active; 'I' for Inactive)
REMARK    3  A    between atoms: CA   and  CB  
ROOT
ATOM     10  CA  CYS A 145     -14.607  19.162  64.101  1.00 29.71     0.186 C 
ENDROOT
BRANCH  10  11
ATOM     11  CB  CYS A 145     -14.100  19.110  65.541  1.00 31.75     0.120 C 
ATOM     12  SG  CYS A 145     -13.810  17.437  66.146  1.00 39.68    -0.095 SA
ENDBRANCH  10  11
END_RES CYS A 145
BEGIN_RES GLN A 189
REMARK  3 active torsions:
REMARK  status: ('A' for Active; 'I' for Inactive)
REMARK    4  A    between atoms: CA   and  CB  
REMARK    5  A    between atoms: CB   and  CG  
REMARK    6  A    between atoms: CG   and  CD  
REMARK       I    between atoms: CD   and  NE2 
ROOT
ATOM     13  CA  GLN A 189     -11.641  10.633  75.105  1.00 38.41     0.177 C 
ENDROOT
BRANCH  13  14
ATOM     14  CB  GLN A 189     -10.259  11.109  74.679  1.00 37.59     0.044 C 
BRANCH  14  15
ATOM     15  CG  GLN A 189     -10.063  11.132  73.172  1.00 45.60     0.105 C 
BRANCH  15  16
ATOM     16  CD  GLN A 189     -10.199  12.522  72.584  1.00 47.27     0.215 C 
ATOM     17  NE2 GLN A 189     -11.430  12.923  72.288  1.00 44.45    -0.370 N 
ATOM     18 2HE2 GLN A 189     -12.251  12.338  72.441  1.00  0.00     0.159 HD
ATOM     19 1HE2 GLN A 189     -11.522  13.858  71.892  1.00  0.00     0.159 HD
ATOM     20  OE1 GLN A 189      -9.207  13.228  72.399  1.00 41.09    -0.274 OA
ENDBRANCH  15  16
ENDBRANCH  14  15
ENDBRANCH  13  14
END_RES GLN A 189
BEGIN_RES ASN A 142
REMARK  2 active torsions:
REMARK  status: ('A' for Active; 'I' for Inactive)
REMARK    7  A    between atoms: CA   and  CB  
REMARK    8  A    between atoms: CB   and  CG  
REMARK       I    between atoms: CG   and  ND2 
ROOT
ATOM     21  CA  ASN A 142      -7.978  15.712  62.559  1.00 43.18     0.185 C 
ENDROOT
BRANCH  21  22
ATOM     22  CB  ASN A 142      -6.512  15.609  62.983  1.00 38.76     0.137 C 
BRANCH  22  23
ATOM     23  CG  ASN A 142      -6.298  14.624  64.116  1.00 50.71     0.217 C 
ATOM     24  ND2 ASN A 142      -5.546  13.564  63.844  1.00 55.08    -0.370 N 
ATOM     25 2HD2 ASN A 142      -5.129  13.407  62.926  1.00  0.00     0.159 HD
ATOM     26 1HD2 ASN A 142      -5.401  12.901  64.606  1.00  0.00     0.159 HD
ATOM     27  OD1 ASN A 142      -6.801  14.812  65.223  1.00 51.97    -0.274 OA
ENDBRANCH  22  23
ENDBRANCH  21  22
END_RES ASN A 142
BEGIN_RES LEU A  27
REMARK  2 active torsions:
REMARK  status: ('A' for Active; 'I' for Inactive)
REMARK    9  A    between atoms: CA   and  CB  
REMARK   10  A    between atoms: CB   and  CG  
ROOT
ATOM     28  CA  LEU A  27     -11.471  23.771  64.549  1.00 37.04     0.177 C 
ENDROOT
BRANCH  28  29
ATOM     29  CB  LEU A  27     -12.225  22.902  65.570  1.00 37.70     0.038 C 
BRANCH  29  30
ATOM     30  CG  LEU A  27     -12.676  23.459  66.920  1.00 36.32    -0.020 C 
ATOM     31  CD1 LEU A  27     -13.524  24.710  66.754  1.00 32.79     0.009 C 
ATOM     32  CD2 LEU A  27     -13.452  22.389  67.673  1.00 31.17     0.009 C 
ENDBRANCH  29  30
ENDBRANCH  28  29
END_RES LEU A  27
BEGIN_RES MET A  49
REMARK  3 active torsions:
REMARK  status: ('A' for Active; 'I' for Inactive)
REMARK   11  A    between atoms: CA   and  CB  
REMARK   12  A    between atoms: CB   and  CG  
REMARK   13  A    between atoms: CG   and  SD  
ROOT
ATOM     33  CA  MET A  49      -9.418  15.600  76.823  1.00 61.58     0.177 C 
ENDROOT
BRANCH  33  34
ATOM     34  CB  MET A  49      -8.930  15.410  75.386  1.00 62.15     0.045 C 
BRANCH  34  35
ATOM     35  CG  MET A  49      -9.764  16.156  74.356  1.00 60.24     0.076 C 
BRANCH  35  36
ATOM     36  SD  MET A  49     -11.299  16.822  75.028  1.00 77.15    -0.173 SA
ATOM     37  CE  MET A  49     -12.504  15.779  74.209  1.00 60.34     0.089 C 
ENDBRANCH  35  36
ENDBRANCH  34  35
ENDBRANCH  33  34
END_RES MET A  49
BEGIN_RES GLU A 166
REMARK  3 active torsions:
REMARK  status: ('A' for Active; 'I' for Inactive)
REMARK   14  A    between atoms: CA   and  CB  
REMARK   15  A    between atoms: CB   and  CG  
REMARK   16  A    between atoms: CG   and  CD  
ROOT
ATOM     38  CA  GLU A 166     -14.746   9.219  66.167  1.00 28.52     0.177 C 
ENDROOT
BRANCH  38  39
ATOM     39  CB  GLU A 166     -13.578   9.064  65.189  1.00 29.90     0.045 C 
BRANCH  39  40
ATOM     40  CG  GLU A 166     -13.571   7.783  64.376  1.00 36.08     0.116 C 
BRANCH  40  41
ATOM     41  CD  GLU A 166     -12.433   7.753  63.373  1.00 45.17     0.172 C 
ATOM     42  OE2 GLU A 166     -12.356   6.783  62.590  1.00 40.54    -0.648 OA
ATOM     43  OE1 GLU A 166     -11.622   8.704  63.359  1.00 50.70    -0.648 OA
ENDBRANCH  40  41
ENDBRANCH  39  40
ENDBRANCH  38  39
END_RES GLU A 166
BEGIN_RES HIS A 163
REMARK  2 active torsions:
REMARK  status: ('A' for Active; 'I' for Inactive)
REMARK   17  A    between atoms: CA   and  CB  
REMARK   18  A    between atoms: CB   and  CG  
ROOT
ATOM     44  CA  HIS A 163     -19.055  16.637  64.100  1.00 27.27     0.182 C 
ENDROOT
BRANCH  44  45
ATOM     45  CB  HIS A 163     -18.129  16.377  62.914  1.00 26.00     0.093 C 
BRANCH  45  46
ATOM     46  CG  HIS A 163     -17.079  15.348  63.192  1.00 26.66     0.028 A 
ATOM     47  ND1 HIS A 163     -15.742  15.661  63.296  1.00 26.97    -0.354 N 
ATOM     48  CE1 HIS A 163     -15.051  14.561  63.537  1.00 30.44     0.180 A 
ATOM     49  HD1 HIS A 163     -15.346  16.597  63.202  1.00  0.00     0.166 HD
ATOM     50  NE2 HIS A 163     -15.893  13.544  63.587  1.00 30.00    -0.360 N 
ATOM     51  CD2 HIS A 163     -17.168  14.009  63.374  1.00 29.24     0.114 A 
ATOM     52  HE2 HIS A 163     -15.638  12.572  63.757  1.00  0.00     0.166 HD
ENDBRANCH  45  46
ENDBRANCH  44  45
END_RES HIS A 163
BEGIN_RES HIS A 172
REMARK  2 active torsions:
REMARK  status: ('A' for Active; 'I' for Inactive)
REMARK   19  A    between atoms: CA   and  CB  
REMARK   20  A    between atoms: CB   and  CG  
ROOT
ATOM     53  CA  HIS A 172     -18.444   9.111  64.049  1.00 29.85     0.182 C 
ENDROOT
BRANCH  53  54
ATOM     54  CB  HIS A 172     -18.188  10.085  62.898  1.00 26.76     0.093 C 
BRANCH  54  55
ATOM     55  CG  HIS A 172     -16.854   9.900  62.245  1.00 28.76     0.028 A 
ATOM     56  CD2 HIS A 172     -15.616  10.302  62.617  1.00 29.36     0.114 A 
ATOM     57  NE2 HIS A 172     -14.739   9.857  61.657  1.00 33.77    -0.360 N 
ATOM     58  CE1 HIS A 172     -15.415   9.199  60.731  1.00 32.44     0.180 A 
ATOM     59  HE2 HIS A 172     -13.731  10.009  61.660  1.00  0.00     0.166 HD
ATOM     60  ND1 HIS A 172     -16.694   9.207  61.063  1.00 29.32    -0.354 N 
ATOM     61  HD1 HIS A 172     -17.445   8.770  60.530  1.00  0.00     0.166 HD
ENDBRANCH  54  55
ENDBRANCH  53  54
END_RES HIS A 172
BEGIN_RES THR A  26
REMARK  2 active torsions:
REMARK  status: ('A' for Active; 'I' for Inactive)
REMARK   21  A    between atoms: CA   and  CB  
REMARK   22  A    between atoms: CB   and  OG1 
ROOT
ATOM     62  CA  THR A  26      -8.224  25.031  66.060  1.00 43.98     0.205 C 
ENDROOT
BRANCH  62  63
ATOM     63  CB  THR A  26      -7.184  25.490  65.034  1.00 45.90     0.146 C 
ATOM     64  CG2 THR A  26      -7.853  26.079  63.790  1.00 47.20     0.042 C 
BRANCH  63  65
ATOM     65  OG1 THR A  26      -6.318  26.466  65.624  1.00 50.51    -0.393 OA
ATOM     66  HG1 THR A  26      -6.833  27.189  65.965  1.00  0.00     0.210 HD
ENDBRANCH  63  65
ENDBRANCH  62  63
END_RES THR A  26
ENDMDL
MODEL 8
REMARK VINA RESULT:      -7.3      2.316      5.454
REMARK  20 active torsions:
REMARK  status: ('A' for Active; 'I' for Inactive)
REMARK       I    between atoms: C41_31  and  N_1 
REMARK    1  A    between atoms: N_1  and  CA_3 
REMARK    2  A    between atoms: CA_3  and  C_4 
REMARK       I    between atoms: C_4  and  N_7 
REMARK    3  A    between atoms: N_7  and  CA_9 
REMARK    4  A    between atoms: CA_9  and  CB_12 
REMARK    5  A    between atoms: CA_9  and  C_10 
REMARK       I    between atoms: C_10  and  N_15 
REMARK    6  A    between atoms: N_15  and  CA_17 
REMARK    7  A    between atoms: CA_17  and  CB_20 
REMARK    8  A    between atoms: CA_17  and  C_18 
REMARK       I    between atoms: C_18  and  N5_33 
REMARK    9  A    between atoms: CB_20  and  CG_21 
REMARK   10  A    between atoms: C3_27  and  C41_31 
REMARK   11  A    between atoms: N5_33  and  C19_41 
REMARK   12  A    between atoms: O8_39  and  C29_49 
REMARK   13  A    between atoms: C19_41  and  C20_42 
REMARK   14  A    between atoms: C19_41  and  C25_45 
REMARK   15  A    between atoms: C20_42  and  C21_43 
REMARK   16  A    between atoms: C21_43  and  C22_44 
REMARK   17  A    between atoms: C22_44  and  O_51 
REMARK   18  A    between atoms: C25_45  and  C26_46 
REMARK   19  A    between atoms: C_50  and  O_51 
REMARK   20  A    between atoms: C_50  and  C6_57 
ROOT
ATOM      1  N   ALA C   2     -11.900  14.728  67.755  1.00 41.65    -0.343 N 
ATOM      2  HN  ALA C   2     -12.891  14.942  67.644  1.00  0.00     0.163 HD
HETATM    3  C41 02J C   1     -11.281  14.768  69.082  1.00 47.56     0.270 C 
HETATM    4  O42 02J C   1     -10.133  14.517  69.208  1.00 47.13    -0.266 OA
ENDROOT
BRANCH   1   5
ATOM      5  CA  ALA C   2     -11.092  14.382  66.598  1.00 42.30     0.172 C 
ATOM      6  CB  ALA C   2     -11.950  13.726  65.546  1.00 36.98     0.042 C 
BRANCH   5   7
ATOM      7  C   ALA C   2     -10.456  15.683  66.017  1.00 41.96     0.240 C 
ATOM      8  N   VAL C   3      -9.649  16.525  66.866  1.00 34.91    -0.346 N 
ATOM      9  HN  VAL C   3      -9.494  16.269  67.841  1.00  0.00     0.163 HD
ATOM     10  O   ALA C   2     -10.635  15.977  64.899  1.00 41.95    -0.271 OA
BRANCH   8  11
ATOM     11  CA  VAL C   3      -9.051  17.750  66.327  1.00 36.29     0.180 C 
BRANCH  11  12
ATOM     12  CB  VAL C   3      -9.422  18.952  67.244  1.00 37.53     0.009 C 
ATOM     13  CG1 VAL C   3     -10.375  19.950  66.515  1.00 40.26     0.012 C 
ATOM     14  CG2 VAL C   3     -10.042  18.458  68.591  1.00 43.10     0.012 C 
ENDBRANCH  11  12
BRANCH  11  15
ATOM     15  C   VAL C   3      -7.553  17.600  66.279  1.00 40.78     0.241 C 
ATOM     16  O   VAL C   3      -6.932  18.119  65.411  1.00 36.69    -0.271 OA
ATOM     17  N   LEU C   4      -6.852  16.786  67.337  1.00 37.32    -0.346 N 
ATOM     18  HN  LEU C   4      -7.394  16.346  68.081  1.00  0.00     0.163 HD
BRANCH  17  19
ATOM     19  CA  LEU C   4      -5.406  16.626  67.303  1.00 39.95     0.177 C 
BRANCH  19  20
ATOM     20  CB  LEU C   4      -4.789  17.443  68.427  1.00 41.97     0.038 C 
BRANCH  20  21
ATOM     21  CG  LEU C   4      -5.840  18.048  69.411  1.00 45.86    -0.020 C 
ATOM     22  CD1 LEU C   4      -5.465  17.788  70.906  1.00 43.70     0.009 C 
ATOM     23  CD2 LEU C   4      -6.036  19.543  69.151  1.00 43.98     0.009 C 
ENDBRANCH  20  21
ENDBRANCH  19  20
BRANCH  19  24
ATOM     24  C   LEU C   4      -5.069  15.121  67.504  1.00 38.38     0.240 C 
HETATM   25  N5  PJE C   5      -6.133  14.159  67.910  1.00 34.60    -0.355 N 
HETATM   26  H5  PJE C   5      -7.089  14.484  68.056  1.00  0.00     0.162 HD
ATOM     27  O   LEU C   4      -3.956  14.737  67.341  1.00 44.55    -0.271 OA
BRANCH  25  28
HETATM   28  C19 PJE C   5      -5.797  12.731  68.099  1.00 40.54     0.085 C 
BRANCH  28  29
HETATM   29  C20 PJE C   5      -6.706  11.885  67.236  1.00 36.98     0.035 C 
BRANCH  29  30
HETATM   30  C21 PJE C   5      -8.198  12.242  67.408  1.00 45.43     0.113 C 
BRANCH  30  31
HETATM   31  C22 PJE C   5      -9.066  11.069  67.941  1.00 52.38     0.259 C 
HETATM   32  O7  PJE C   5      -9.823  11.238  68.841  1.00 57.27    -0.265 OA
BRANCH  31  33
HETATM   33  O   010 C   6      -8.938   9.782  67.348  1.00 52.13    -0.317 OA
BRANCH  33  34
HETATM   34  C   010 C   6     -10.062   9.392  66.553  1.00 63.14     0.217 C 
BRANCH  34  35
HETATM   35  C6  010 C   6      -9.731   9.706  65.070  1.00 66.95    -0.034 A 
HETATM   36  C1  010 C   6      -8.833   8.905  64.372  1.00 68.45     0.009 A 
HETATM   37  C2  010 C   6      -8.536   9.186  63.039  1.00 70.02     0.001 A 
HETATM   38  C3  010 C   6      -9.139  10.276  62.405  1.00 58.91     0.000 A 
HETATM   39  C4  010 C   6     -10.032  11.074  63.106  1.00 57.63     0.001 A 
HETATM   40  C5  010 C   6     -10.334  10.795  64.438  1.00 62.65     0.009 A 
ENDBRANCH  34  35
ENDBRANCH  33  34
ENDBRANCH  31  33
ENDBRANCH  30  31
ENDBRANCH  29  30
ENDBRANCH  28  29
BRANCH  28  41
HETATM   41  C25 PJE C   5      -5.982  12.347  69.565  1.00 30.76     0.034 C 
BRANCH  41  42
HETATM   42  C26 PJE C   5      -6.447  13.597  70.452  1.00 34.19     0.045 C 
HETATM   43  C27 PJE C   5      -5.193  14.125  71.376  1.00 40.55     0.036 C 
HETATM   44  C28 PJE C   5      -5.608  14.215  72.663  1.00 39.60     0.236 C 
HETATM   45  N6  PJE C   5      -6.927  13.487  72.753  1.00 35.08    -0.049 N 
HETATM   46  C29 PJE C   5      -7.425  13.280  71.232  1.00 34.70     0.322 C 
HETATM   47  H62 PJE C   5      -6.877  12.620  73.288  1.00  0.00     0.280 HD
HETATM   48  H61 PJE C   5      -7.612  13.958  73.345  1.00  0.00     0.280 HD
BRANCH  46  49
HETATM   49  O8  PJE C   5      -7.857  11.932  71.034  1.00 31.54    -0.369 OA
HETATM   50  H8  PJE C   5      -8.802  11.899  70.946  1.00  0.00     0.212 HD
ENDBRANCH  46  49
ENDBRANCH  41  42
ENDBRANCH  28  41
ENDBRANCH  25  28
ENDBRANCH  19  24
ENDBRANCH  17  19
ENDBRANCH  11  15
ENDBRANCH   8  11
ENDBRANCH   5   7
ENDBRANCH   1   5
BRANCH   3  51
HETATM   51  C3  02J C   1     -12.124  15.134  70.313  1.00 50.26     0.124 A 
HETATM   52  N2  02J C   1     -13.450  15.289  70.361  1.00 56.79    -0.256 N 
HETATM   53  O1  02J C   1     -13.826  15.603  71.580  1.00 63.01    -0.242 OA
HETATM   54  H2  02J C   1     -14.079  15.181  69.566  1.00  0.00     0.195 HD
HETATM   55  C5  02J C   1     -12.813  15.673  72.392  1.00 63.03     0.075 A 
HETATM   56  C4  02J C   1     -11.652  15.379  71.642  1.00 54.38     0.071 A 
HETATM   57  C6  02J C   1     -12.866  16.009  73.876  1.00 64.36     0.079 C 
ENDBRANCH   3  51
TORSDOF 20
BEGIN_RES HIS A  41
REMARK  2 active torsions:
REMARK  status: ('A' for Active; 'I' for Inactive)
REMARK    1  A    between atoms: CA   and  CB  
REMARK    2  A    between atoms: CB   and  CG  
ROOT
ATOM      1  CA  HIS A  41     -13.820  21.037  73.265  1.00 38.89     0.182 C 
ENDROOT
BRANCH   1   2
ATOM      2  CB  HIS A  41     -13.705  19.545  72.937  1.00 42.38     0.093 C 
BRANCH   2   3
ATOM      3  CG  HIS A  41     -14.071  19.201  71.528  1.00 37.90     0.028 A 
ATOM      4  CD2 HIS A  41     -13.449  19.462  70.354  1.00 37.33     0.114 A 
ATOM      5  NE2 HIS A  41     -14.217  18.911  69.357  1.00 41.88    -0.360 N 
ATOM      6  CE1 HIS A  41     -15.271  18.328  69.901  1.00 41.55     0.180 A 
ATOM      7  HE2 HIS A  41     -14.008  18.947  68.359  1.00  0.00     0.166 HD
ATOM      8  ND1 HIS A  41     -15.206  18.486  71.210  1.00 36.57    -0.354 N 
ATOM      9  HD1 HIS A  41     -15.888  18.133  71.881  1.00  0.00     0.166 HD
ENDBRANCH   2   3
ENDBRANCH   1   2
END_RES HIS A  41
BEGIN_RES CYS A 145
REMARK  1 active torsions:
REMARK  status: ('A' for Active; 'I' for Inactive)
REMARK    3  A    between atoms: CA   and  CB  
ROOT
ATOM     10  CA  CYS A 145     -14.607  19.162  64.101  1.00 29.71     0.186 C 
ENDROOT
BRANCH  10  11
ATOM     11  CB  CYS A 145     -14.100  19.110  65.541  1.00 31.75     0.120 C 
ATOM     12  SG  CYS A 145     -13.730  17.443  66.118  1.00 39.68    -0.095 SA
ENDBRANCH  10  11
END_RES CYS A 145
BEGIN_RES GLN A 189
REMARK  3 active torsions:
REMARK  status: ('A' for Active; 'I' for Inactive)
REMARK    4  A    between atoms: CA   and  CB  
REMARK    5  A    between atoms: CB   and  CG  
REMARK    6  A    between atoms: CG   and  CD  
REMARK       I    between atoms: CD   and  NE2 
ROOT
ATOM     13  CA  GLN A 189     -11.641  10.633  75.105  1.00 38.41     0.177 C 
ENDROOT
BRANCH  13  14
ATOM     14  CB  GLN A 189     -10.259  11.109  74.679  1.00 37.59     0.044 C 
BRANCH  14  15
ATOM     15  CG  GLN A 189     -10.287  12.103  73.530  1.00 45.60     0.105 C 
BRANCH  15  16
ATOM     16  CD  GLN A 189     -11.209  11.674  72.406  1.00 47.27     0.215 C 
ATOM     17  NE2 GLN A 189     -10.708  10.814  71.525  1.00 44.45    -0.370 N 
ATOM     18 2HE2 GLN A 189      -9.756  10.454  71.587  1.00  0.00     0.159 HD
ATOM     19 1HE2 GLN A 189     -11.328  10.526  70.768  1.00  0.00     0.159 HD
ATOM     20  OE1 GLN A 189     -12.358  12.110  72.331  1.00 41.09    -0.274 OA
ENDBRANCH  15  16
ENDBRANCH  14  15
ENDBRANCH  13  14
END_RES GLN A 189
BEGIN_RES ASN A 142
REMARK  2 active torsions:
REMARK  status: ('A' for Active; 'I' for Inactive)
REMARK    7  A    between atoms: CA   and  CB  
REMARK    8  A    between atoms: CB   and  CG  
REMARK       I    between atoms: CG   and  ND2 
ROOT
ATOM     21  CA  ASN A 142      -7.978  15.712  62.559  1.00 43.18     0.185 C 
ENDROOT
BRANCH  21  22
ATOM     22  CB  ASN A 142      -6.512  15.609  62.983  1.00 38.76     0.137 C 
BRANCH  22  23
ATOM     23  CG  ASN A 142      -6.312  14.709  64.187  1.00 50.71     0.217 C 
ATOM     24  ND2 ASN A 142      -5.116  14.146  64.313  1.00 55.08    -0.370 N 
ATOM     25 2HD2 ASN A 142      -4.363  14.301  63.642  1.00  0.00     0.159 HD
ATOM     26 1HD2 ASN A 142      -4.982  13.540  65.123  1.00  0.00     0.159 HD
ATOM     27  OD1 ASN A 142      -7.221  14.522  64.996  1.00 51.97    -0.274 OA
ENDBRANCH  22  23
ENDBRANCH  21  22
END_RES ASN A 142
BEGIN_RES LEU A  27
REMARK  2 active torsions:
REMARK  status: ('A' for Active; 'I' for Inactive)
REMARK    9  A    between atoms: CA   and  CB  
REMARK   10  A    between atoms: CB   and  CG  
ROOT
ATOM     28  CA  LEU A  27     -11.471  23.771  64.549  1.00 37.04     0.177 C 
ENDROOT
BRANCH  28  29
ATOM     29  CB  LEU A  27     -12.225  22.902  65.570  1.00 37.70     0.038 C 
BRANCH  29  30
ATOM     30  CG  LEU A  27     -12.594  23.430  66.956  1.00 36.32    -0.020 C 
ATOM     31  CD1 LEU A  27     -13.749  24.416  66.890  1.00 32.79     0.009 C 
ATOM     32  CD2 LEU A  27     -12.946  22.261  67.863  1.00 31.17     0.009 C 
ENDBRANCH  29  30
ENDBRANCH  28  29
END_RES LEU A  27
BEGIN_RES MET A  49
REMARK  3 active torsions:
REMARK  status: ('A' for Active; 'I' for Inactive)
REMARK   11  A    between atoms: CA   and  CB  
REMARK   12  A    between atoms: CB   and  CG  
REMARK   13  A    between atoms: CG   and  SD  
ROOT
ATOM     33  CA  MET A  49      -9.418  15.600  76.823  1.00 61.58     0.177 C 
ENDROOT
BRANCH  33  34
ATOM     34  CB  MET A  49      -8.930  15.410  75.386  1.00 62.15     0.045 C 
BRANCH  34  35
ATOM     35  CG  MET A  49      -9.458  16.458  74.420  1.00 60.24     0.076 C 
BRANCH  35  36
ATOM     36  SD  MET A  49      -8.268  16.918  73.146  1.00 77.15    -0.173 SA
ATOM     37  CE  MET A  49      -8.607  18.670  72.986  1.00 60.34     0.089 C 
ENDBRANCH  35  36
ENDBRANCH  34  35
ENDBRANCH  33  34
END_RES MET A  49
BEGIN_RES GLU A 166
REMARK  3 active torsions:
REMARK  status: ('A' for Active; 'I' for Inactive)
REMARK   14  A    between atoms: CA   and  CB  
REMARK   15  A    between atoms: CB   and  CG  
REMARK   16  A    between atoms: CG   and  CD  
ROOT
ATOM     38  CA  GLU A 166     -14.746   9.219  66.167  1.00 28.52     0.177 C 
ENDROOT
BRANCH  38  39
ATOM     39  CB  GLU A 166     -13.578   9.064  65.189  1.00 29.90     0.045 C 
BRANCH  39  40
ATOM     40  CG  GLU A 166     -13.687   7.903  64.220  1.00 36.08     0.116 C 
BRANCH  40  41
ATOM     41  CD  GLU A 166     -12.393   7.674  63.460  1.00 45.17     0.172 C 
ATOM     42  OE2 GLU A 166     -12.189   8.335  62.420  1.00 40.54    -0.648 OA
ATOM     43  OE1 GLU A 166     -11.575   6.841  63.908  1.00 50.70    -0.648 OA
ENDBRANCH  40  41
ENDBRANCH  39  40
ENDBRANCH  38  39
END_RES GLU A 166
BEGIN_RES HIS A 163
REMARK  2 active torsions:
REMARK  status: ('A' for Active; 'I' for Inactive)
REMARK   17  A    between atoms: CA   and  CB  
REMARK   18  A    between atoms: CB   and  CG  
ROOT
ATOM     44  CA  HIS A 163     -19.055  16.637  64.100  1.00 27.27     0.182 C 
ENDROOT
BRANCH  44  45
ATOM     45  CB  HIS A 163     -18.129  16.377  62.914  1.00 26.00     0.093 C 
BRANCH  45  46
ATOM     46  CG  HIS A 163     -17.099  15.325  63.181  1.00 26.66     0.028 A 
ATOM     47  ND1 HIS A 163     -15.752  15.606  63.248  1.00 26.97    -0.354 N 
ATOM     48  CE1 HIS A 163     -15.084  14.491  63.488  1.00 30.44     0.180 A 
ATOM     49  HD1 HIS A 163     -15.335  16.529  63.131  1.00  0.00     0.166 HD
ATOM     50  NE2 HIS A 163     -15.950  13.498  63.574  1.00 30.00    -0.360 N 
ATOM     51  CD2 HIS A 163     -17.218  13.992  63.385  1.00 29.24     0.114 A 
ATOM     52  HE2 HIS A 163     -15.715  12.521  63.752  1.00  0.00     0.166 HD
ENDBRANCH  45  46
ENDBRANCH  44  45
END_RES HIS A 163
BEGIN_RES HIS A 172
REMARK  2 active torsions:
REMARK  status: ('A' for Active; 'I' for Inactive)
REMARK   19  A    between atoms: CA   and  CB  
REMARK   20  A    between atoms: CB   and  CG  
ROOT
ATOM     53  CA  HIS A 172     -18.444   9.111  64.049  1.00 29.85     0.182 C 
ENDROOT
BRANCH  53  54
ATOM     54  CB  HIS A 172     -18.188  10.085  62.898  1.00 26.76     0.093 C 
BRANCH  54  55
ATOM     55  CG  HIS A 172     -16.887   9.852  62.197  1.00 28.76     0.028 A 
ATOM     56  CD2 HIS A 172     -15.627  10.240  62.504  1.00 29.36     0.114 A 
ATOM     57  NE2 HIS A 172     -14.799   9.746  61.524  1.00 33.77    -0.360 N 
ATOM     58  CE1 HIS A 172     -15.526   9.074  60.648  1.00 32.44     0.180 A 
ATOM     59  HE2 HIS A 172     -13.789   9.877  61.481  1.00  0.00     0.166 HD
ATOM     60  ND1 HIS A 172     -16.789   9.119  61.033  1.00 29.32    -0.354 N 
ATOM     61  HD1 HIS A 172     -17.571   8.680  60.545  1.00  0.00     0.166 HD
ENDBRANCH  54  55
ENDBRANCH  53  54
END_RES HIS A 172
BEGIN_RES THR A  26
REMARK  2 active torsions:
REMARK  status: ('A' for Active; 'I' for Inactive)
REMARK   21  A    between atoms: CA   and  CB  
REMARK   22  A    between atoms: CB   and  OG1 
ROOT
ATOM     62  CA  THR A  26      -8.224  25.031  66.060  1.00 43.98     0.205 C 
ENDROOT
BRANCH  62  63
ATOM     63  CB  THR A  26      -7.184  25.490  65.034  1.00 45.90     0.146 C 
ATOM     64  CG2 THR A  26      -6.175  26.456  65.660  1.00 47.20     0.042 C 
BRANCH  63  65
ATOM     65  OG1 THR A  26      -6.496  24.354  64.499  1.00 50.51    -0.393 OA
ATOM     66  HG1 THR A  26      -6.506  24.389  63.549  1.00  0.00     0.210 HD
ENDBRANCH  63  65
ENDBRANCH  62  63
END_RES THR A  26
ENDMDL
MODEL 9
REMARK VINA RESULT:      -7.3      2.588      7.826
REMARK  20 active torsions:
REMARK  status: ('A' for Active; 'I' for Inactive)
REMARK       I    between atoms: C41_31  and  N_1 
REMARK    1  A    between atoms: N_1  and  CA_3 
REMARK    2  A    between atoms: CA_3  and  C_4 
REMARK       I    between atoms: C_4  and  N_7 
REMARK    3  A    between atoms: N_7  and  CA_9 
REMARK    4  A    between atoms: CA_9  and  CB_12 
REMARK    5  A    between atoms: CA_9  and  C_10 
REMARK       I    between atoms: C_10  and  N_15 
REMARK    6  A    between atoms: N_15  and  CA_17 
REMARK    7  A    between atoms: CA_17  and  CB_20 
REMARK    8  A    between atoms: CA_17  and  C_18 
REMARK       I    between atoms: C_18  and  N5_33 
REMARK    9  A    between atoms: CB_20  and  CG_21 
REMARK   10  A    between atoms: C3_27  and  C41_31 
REMARK   11  A    between atoms: N5_33  and  C19_41 
REMARK   12  A    between atoms: O8_39  and  C29_49 
REMARK   13  A    between atoms: C19_41  and  C20_42 
REMARK   14  A    between atoms: C19_41  and  C25_45 
REMARK   15  A    between atoms: C20_42  and  C21_43 
REMARK   16  A    between atoms: C21_43  and  C22_44 
REMARK   17  A    between atoms: C22_44  and  O_51 
REMARK   18  A    between atoms: C25_45  and  C26_46 
REMARK   19  A    between atoms: C_50  and  O_51 
REMARK   20  A    between atoms: C_50  and  C6_57 
ROOT
ATOM      1  N   ALA C   2     -10.381  11.222  62.862  1.00 41.65    -0.343 N 
ATOM      2  HN  ALA C   2     -10.996  10.525  62.441  1.00  0.00     0.163 HD
HETATM    3  C41 02J C   1      -8.954  11.238  62.536  1.00 47.56     0.270 C 
HETATM    4  O42 02J C   1      -8.244  12.048  63.023  1.00 47.13    -0.266 OA
ENDROOT
BRANCH   1   5
ATOM      5  CA  ALA C   2     -10.915  12.205  63.789  1.00 42.30     0.172 C 
ATOM      6  CB  ALA C   2     -12.243  12.716  63.292  1.00 36.98     0.042 C 
BRANCH   5   7
ATOM      7  C   ALA C   2     -11.103  11.534  65.185  1.00 41.96     0.240 C 
ATOM      8  N   VAL C   3     -10.225  10.463  65.588  1.00 34.91    -0.346 N 
ATOM      9  HN  VAL C   3      -9.484  10.147  64.962  1.00  0.00     0.163 HD
ATOM     10  O   ALA C   2     -11.954  11.896  65.902  1.00 41.95    -0.271 OA
BRANCH   8  11
ATOM     11  CA  VAL C   3     -10.398   9.827  66.897  1.00 36.29     0.180 C 
BRANCH  11  12
ATOM     12  CB  VAL C   3      -9.692   8.440  66.895  1.00 37.53     0.009 C 
ATOM     13  CG1 VAL C   3     -10.715   7.280  67.106  1.00 40.26     0.012 C 
ATOM     14  CG2 VAL C   3      -8.866   8.235  65.584  1.00 43.10     0.012 C 
ENDBRANCH  11  12
BRANCH  11  15
ATOM     15  C   VAL C   3      -9.789  10.699  67.964  1.00 40.78     0.241 C 
ATOM     16  O   VAL C   3      -9.654  10.281  69.066  1.00 36.69    -0.271 OA
ATOM     17  N   LEU C   4      -9.355  12.102  67.622  1.00 37.32    -0.346 N 
ATOM     18  HN  LEU C   4      -9.472  12.451  66.671  1.00  0.00     0.163 HD
BRANCH  17  19
ATOM     19  CA  LEU C   4      -8.769  12.959  68.641  1.00 39.95     0.177 C 
BRANCH  19  20
ATOM     20  CB  LEU C   4      -7.563  13.675  68.054  1.00 41.97     0.038 C 
BRANCH  20  21
ATOM     21  CG  LEU C   4      -6.224  13.355  68.793  1.00 45.86    -0.020 C 
ATOM     22  CD1 LEU C   4      -4.987  13.971  68.063  1.00 43.70     0.009 C 
ATOM     23  CD2 LEU C   4      -6.281  13.816  70.251  1.00 43.98     0.009 C 
ENDBRANCH  20  21
ENDBRANCH  19  20
BRANCH  19  24
ATOM     24  C   LEU C   4      -9.834  14.004  69.081  1.00 38.38     0.240 C 
HETATM   25  N5  PJE C   5      -9.485  15.451  69.153  1.00 34.60    -0.355 N 
HETATM   26  H5  PJE C   5      -8.544  15.764  68.913  1.00  0.00     0.162 HD
ATOM     27  O   LEU C   4     -10.930  13.645  69.369  1.00 44.55    -0.271 OA
BRANCH  25  28
HETATM   28  C19 PJE C   5     -10.508  16.432  69.575  1.00 40.54     0.085 C 
BRANCH  28  29
HETATM   29  C20 PJE C   5     -10.562  17.562  68.571  1.00 36.98     0.035 C 
BRANCH  29  30
HETATM   30  C21 PJE C   5      -9.835  17.225  67.251  1.00 45.43     0.113 C 
BRANCH  30  31
HETATM   31  C22 PJE C   5      -9.487  18.472  66.392  1.00 52.38     0.259 C 
HETATM   32  O7  PJE C   5     -10.310  18.977  65.699  1.00 57.27    -0.265 OA
BRANCH  31  33
HETATM   33  O   010 C   6      -8.166  18.999  66.433  1.00 52.13    -0.317 OA
BRANCH  33  34
HETATM   34  C   010 C   6      -7.935  19.909  67.513  1.00 63.14     0.217 C 
BRANCH  34  35
HETATM   35  C6  010 C   6      -6.709  19.398  68.315  1.00 66.95    -0.034 A 
HETATM   36  C1  010 C   6      -6.197  18.127  68.071  1.00 68.45     0.009 A 
HETATM   37  C2  010 C   6      -5.096  17.668  68.792  1.00 70.02     0.001 A 
HETATM   38  C3  010 C   6      -4.507  18.484  69.762  1.00 58.91     0.000 A 
HETATM   39  C4  010 C   6      -5.023  19.750  70.004  1.00 57.63     0.001 A 
HETATM   40  C5  010 C   6      -6.123  20.214  69.284  1.00 62.65     0.009 A 
ENDBRANCH  34  35
ENDBRANCH  33  34
ENDBRANCH  31  33
ENDBRANCH  30  31
ENDBRANCH  29  30
ENDBRANCH  28  29
BRANCH  28  41
HETATM   41  C25 PJE C   5     -10.153  16.990  70.952  1.00 30.76     0.034 C 
BRANCH  41  42
HETATM   42  C26 PJE C   5      -8.832  17.894  70.902  1.00 34.19     0.045 C 
HETATM   43  C27 PJE C   5      -7.545  17.036  71.461  1.00 40.55     0.036 C 
HETATM   44  C28 PJE C   5      -6.914  17.766  72.412  1.00 39.60     0.236 C 
HETATM   45  N6  PJE C   5      -7.839  18.899  72.785  1.00 35.08    -0.049 N 
HETATM   46  C29 PJE C   5      -8.963  18.954  71.627  1.00 34.70     0.322 C 
HETATM   47  H62 PJE C   5      -8.227  18.815  73.725  1.00  0.00     0.280 HD
HETATM   48  H61 PJE C   5      -7.358  19.787  72.928  1.00  0.00     0.280 HD
BRANCH  46  49
HETATM   49  O8  PJE C   5     -10.265  19.052  72.208  1.00 31.54    -0.369 OA
HETATM   50  H8  PJE C   5     -10.881  19.403  71.575  1.00  0.00     0.212 HD
ENDBRANCH  46  49
ENDBRANCH  41  42
ENDBRANCH  28  41
ENDBRANCH  25  28
ENDBRANCH  19  24
ENDBRANCH  17  19
ENDBRANCH  11  15
ENDBRANCH   8  11
ENDBRANCH   5   7
ENDBRANCH   1   5
BRANCH   3  51
HETATM   51  C3  02J C   1      -8.375  10.203  61.558  1.00 50.26     0.124 A 
HETATM   52  N2  02J C   1      -7.091  10.044  61.226  1.00 56.79    -0.256 N 
HETATM   53  O1  02J C   1      -6.964   9.063  60.362  1.00 63.01    -0.242 OA
HETATM   54  H2  02J C   1      -6.320  10.603  61.590  1.00  0.00     0.195 HD
HETATM   55  C5  02J C   1      -8.114   8.526  60.074  1.00 63.03     0.075 A 
HETATM   56  C4  02J C   1      -9.098   9.216  60.817  1.00 54.38     0.071 A 
HETATM   57  C6  02J C   1      -8.355   7.368  59.114  1.00 64.36     0.079 C 
ENDBRANCH   3  51
TORSDOF 20
BEGIN_RES HIS A  41
REMARK  2 active torsions:
REMARK  status: ('A' for Active; 'I' for Inactive)
REMARK    1  A    between atoms: CA   and  CB  
REMARK    2  A    between atoms: CB   and  CG  
ROOT
ATOM      1  CA  HIS A  41     -13.820  21.037  73.265  1.00 38.89     0.182 C 
ENDROOT
BRANCH   1   2
ATOM      2  CB  HIS A  41     -13.705  19.545  72.937  1.00 42.38     0.093 C 
BRANCH   2   3
ATOM      3  CG  HIS A  41     -14.046  19.205  71.520  1.00 37.90     0.028 A 
ATOM      4  CD2 HIS A  41     -13.388  19.444  70.361  1.00 37.33     0.114 A 
ATOM      5  NE2 HIS A  41     -14.145  18.909  69.348  1.00 41.88    -0.360 N 
ATOM      6  CE1 HIS A  41     -15.228  18.356  69.867  1.00 41.55     0.180 A 
ATOM      7  HE2 HIS A  41     -13.911  18.935  68.356  1.00  0.00     0.166 HD
ATOM      8  ND1 HIS A  41     -15.190  18.518  71.177  1.00 36.57    -0.354 N 
ATOM      9  HD1 HIS A  41     -15.898  18.187  71.833  1.00  0.00     0.166 HD
ENDBRANCH   2   3
ENDBRANCH   1   2
END_RES HIS A  41
BEGIN_RES CYS A 145
REMARK  1 active torsions:
REMARK  status: ('A' for Active; 'I' for Inactive)
REMARK    3  A    between atoms: CA   and  CB  
ROOT
ATOM     10  CA  CYS A 145     -14.607  19.162  64.101  1.00 29.71     0.186 C 
ENDROOT
BRANCH  10  11
ATOM     11  CB  CYS A 145     -14.100  19.110  65.541  1.00 31.75     0.120 C 
ATOM     12  SG  CYS A 145     -13.575  17.467  66.064  1.00 39.68    -0.095 SA
ENDBRANCH  10  11
END_RES CYS A 145
BEGIN_RES GLN A 189
REMARK  3 active torsions:
REMARK  status: ('A' for Active; 'I' for Inactive)
REMARK    4  A    between atoms: CA   and  CB  
REMARK    5  A    between atoms: CB   and  CG  
REMARK    6  A    between atoms: CG   and  CD  
REMARK       I    between atoms: CD   and  NE2 
ROOT
ATOM     13  CA  GLN A 189     -11.641  10.633  75.105  1.00 38.41     0.177 C 
ENDROOT
BRANCH  13  14
ATOM     14  CB  GLN A 189     -10.259  11.109  74.679  1.00 37.59     0.044 C 
BRANCH  14  15
ATOM     15  CG  GLN A 189     -10.062  11.128  73.172  1.00 45.60     0.105 C 
BRANCH  15  16
ATOM     16  CD  GLN A 189     -10.340  12.487  72.561  1.00 47.27     0.215 C 
ATOM     17  NE2 GLN A 189     -11.578  12.698  72.126  1.00 44.45    -0.370 N 
ATOM     18 2HE2 GLN A 189     -12.312  11.993  72.191  1.00  0.00     0.159 HD
ATOM     19 1HE2 GLN A 189     -11.766  13.612  71.715  1.00  0.00     0.159 HD
ATOM     20  OE1 GLN A 189      -9.453  13.337  72.482  1.00 41.09    -0.274 OA
ENDBRANCH  15  16
ENDBRANCH  14  15
ENDBRANCH  13  14
END_RES GLN A 189
BEGIN_RES ASN A 142
REMARK  2 active torsions:
REMARK  status: ('A' for Active; 'I' for Inactive)
REMARK    7  A    between atoms: CA   and  CB  
REMARK    8  A    between atoms: CB   and  CG  
REMARK       I    between atoms: CG   and  ND2 
ROOT
ATOM     21  CA  ASN A 142      -7.978  15.712  62.559  1.00 43.18     0.185 C 
ENDROOT
BRANCH  21  22
ATOM     22  CB  ASN A 142      -6.512  15.609  62.983  1.00 38.76     0.137 C 
BRANCH  22  23
ATOM     23  CG  ASN A 142      -6.347  15.092  64.400  1.00 50.71     0.217 C 
ATOM     24  ND2 ASN A 142      -6.164  13.784  64.534  1.00 55.08    -0.370 N 
ATOM     25 2HD2 ASN A 142      -6.135  13.148  63.736  1.00  0.00     0.159 HD
ATOM     26 1HD2 ASN A 142      -6.053  13.436  65.487  1.00  0.00     0.159 HD
ATOM     27  OD1 ASN A 142      -6.381  15.859  65.362  1.00 51.97    -0.274 OA
ENDBRANCH  22  23
ENDBRANCH  21  22
END_RES ASN A 142
BEGIN_RES LEU A  27
REMARK  2 active torsions:
REMARK  status: ('A' for Active; 'I' for Inactive)
REMARK    9  A    between atoms: CA   and  CB  
REMARK   10  A    between atoms: CB   and  CG  
ROOT
ATOM     28  CA  LEU A  27     -11.471  23.771  64.549  1.00 37.04     0.177 C 
ENDROOT
BRANCH  28  29
ATOM     29  CB  LEU A  27     -12.225  22.902  65.570  1.00 37.70     0.038 C 
BRANCH  29  30
ATOM     30  CG  LEU A  27     -12.589  23.429  66.958  1.00 36.32    -0.020 C 
ATOM     31  CD1 LEU A  27     -13.703  24.461  66.890  1.00 32.79     0.009 C 
ATOM     32  CD2 LEU A  27     -13.000  22.264  67.846  1.00 31.17     0.009 C 
ENDBRANCH  29  30
ENDBRANCH  28  29
END_RES LEU A  27
BEGIN_RES MET A  49
REMARK  3 active torsions:
REMARK  status: ('A' for Active; 'I' for Inactive)
REMARK   11  A    between atoms: CA   and  CB  
REMARK   12  A    between atoms: CB   and  CG  
REMARK   13  A    between atoms: CG   and  SD  
ROOT
ATOM     33  CA  MET A  49      -9.418  15.600  76.823  1.00 61.58     0.177 C 
ENDROOT
BRANCH  33  34
ATOM     34  CB  MET A  49      -8.930  15.410  75.386  1.00 62.15     0.045 C 
BRANCH  34  35
ATOM     35  CG  MET A  49      -9.673  16.266  74.372  1.00 60.24     0.076 C 
BRANCH  35  36
ATOM     36  SD  MET A  49     -11.284  16.827  74.956  1.00 77.15    -0.173 SA
ATOM     37  CE  MET A  49     -12.346  15.548  74.288  1.00 60.34     0.089 C 
ENDBRANCH  35  36
ENDBRANCH  34  35
ENDBRANCH  33  34
END_RES MET A  49
BEGIN_RES GLU A 166
REMARK  3 active torsions:
REMARK  status: ('A' for Active; 'I' for Inactive)
REMARK   14  A    between atoms: CA   and  CB  
REMARK   15  A    between atoms: CB   and  CG  
REMARK   16  A    between atoms: CG   and  CD  
ROOT
ATOM     38  CA  GLU A 166     -14.746   9.219  66.167  1.00 28.52     0.177 C 
ENDROOT
BRANCH  38  39
ATOM     39  CB  GLU A 166     -13.578   9.064  65.189  1.00 29.90     0.045 C 
BRANCH  39  40
ATOM     40  CG  GLU A 166     -13.507   7.735  64.461  1.00 36.08     0.116 C 
BRANCH  40  41
ATOM     41  CD  GLU A 166     -12.183   7.551  63.744  1.00 45.17     0.172 C 
ATOM     42  OE2 GLU A 166     -11.782   6.388  63.523  1.00 40.54    -0.648 OA
ATOM     43  OE1 GLU A 166     -11.547   8.567  63.390  1.00 50.70    -0.648 OA
ENDBRANCH  40  41
ENDBRANCH  39  40
ENDBRANCH  38  39
END_RES GLU A 166
BEGIN_RES HIS A 163
REMARK  2 active torsions:
REMARK  status: ('A' for Active; 'I' for Inactive)
REMARK   17  A    between atoms: CA   and  CB  
REMARK   18  A    between atoms: CB   and  CG  
ROOT
ATOM     44  CA  HIS A 163     -19.055  16.637  64.100  1.00 27.27     0.182 C 
ENDROOT
BRANCH  44  45
ATOM     45  CB  HIS A 163     -18.129  16.377  62.914  1.00 26.00     0.093 C 
BRANCH  45  46
ATOM     46  CG  HIS A 163     -17.101  15.323  63.180  1.00 26.66     0.028 A 
ATOM     47  ND1 HIS A 163     -17.423  13.991  63.323  1.00 26.97    -0.354 N 
ATOM     48  CE1 HIS A 163     -16.323  13.297  63.555  1.00 30.44     0.180 A 
ATOM     49  HD1 HIS A 163     -18.364  13.602  63.258  1.00  0.00     0.166 HD
ATOM     50  NE2 HIS A 163     -15.300  14.133  63.574  1.00 30.00    -0.360 N 
ATOM     51  CD2 HIS A 163     -15.759  15.406  63.343  1.00 29.24     0.114 A 
ATOM     52  HE2 HIS A 163     -14.327  13.873  63.734  1.00  0.00     0.166 HD
ENDBRANCH  45  46
ENDBRANCH  44  45
END_RES HIS A 163
BEGIN_RES HIS A 172
REMARK  2 active torsions:
REMARK  status: ('A' for Active; 'I' for Inactive)
REMARK   19  A    between atoms: CA   and  CB  
REMARK   20  A    between atoms: CB   and  CG  
ROOT
ATOM     53  CA  HIS A 172     -18.444   9.111  64.049  1.00 29.85     0.182 C 
ENDROOT
BRANCH  53  54
ATOM     54  CB  HIS A 172     -18.188  10.085  62.898  1.00 26.76     0.093 C 
BRANCH  54  55
ATOM     55  CG  HIS A 172     -16.939   9.787  62.130  1.00 28.76     0.028 A 
ATOM     56  CD2 HIS A 172     -16.753   9.202  60.922  1.00 29.36     0.114 A 
ATOM     57  NE2 HIS A 172     -15.400   9.185  60.683  1.00 33.77    -0.360 N 
ATOM     58  CE1 HIS A 172     -14.777   9.744  61.706  1.00 32.44     0.180 A 
ATOM     59  HE2 HIS A 172     -14.951   8.803  59.852  1.00  0.00     0.166 HD
ATOM     60  ND1 HIS A 172     -15.683  10.119  62.592  1.00 29.32    -0.354 N 
ATOM     61  HD1 HIS A 172     -15.485  10.582  63.479  1.00  0.00     0.166 HD
ENDBRANCH  54  55
ENDBRANCH  53  54
END_RES HIS A 172
BEGIN_RES THR A  26
REMARK  2 active torsions:
REMARK  status: ('A' for Active; 'I' for Inactive)
REMARK   21  A    between atoms: CA   and  CB  
REMARK   22  A    between atoms: CB   and  OG1 
ROOT
ATOM     62  CA  THR A  26      -8.224  25.031  66.060  1.00 43.98     0.205 C 
ENDROOT
BRANCH  62  63
ATOM     63  CB  THR A  26      -7.184  25.490  65.034  1.00 45.90     0.146 C 
ATOM     64  CG2 THR A  26      -7.853  26.002  63.757  1.00 47.20     0.042 C 
BRANCH  63  65
ATOM     65  OG1 THR A  26      -6.368  26.522  65.599  1.00 50.51    -0.393 OA
ATOM     66  HG1 THR A  26      -6.308  26.407  66.540  1.00  0.00     0.210 HD
ENDBRANCH  63  65
ENDBRANCH  62  63
END_RES THR A  26
ENDMDL
