2060
  -OEChem-02212016592D

 84 86  0     1  0  0  0  0  0999 V2000
    4.6261   -5.2702    0.0000 F   0  0  0  0  0  0  0  0  0  0  0  0
    2.0000    3.5086    0.0000 O   0  0  0  0  0  0  0  0  0  0  0  0
    6.3582    0.7298    0.0000 O   0  0  0  0  0  0  0  0  0  0  0  0
    7.2242    0.2298    0.0000 O   0  0  0  0  0  0  0  0  0  0  0  0
    7.2242    3.2298    0.0000 O   0  0  0  0  0  0  0  0  0  0  0  0
    6.3582    4.7298    0.0000 O   0  0  0  0  0  0  0  0  0  0  0  0
    9.8222   -2.2702    0.0000 O   0  0  0  0  0  0  0  0  0  0  0  0
   12.2710   -0.4338    0.0000 O   0  0  0  0  0  0  0  0  0  0  0  0
    4.6261    0.7298    0.0000 N   0  0  0  0  0  0  0  0  0  0  0  0
    3.2601    4.7686    0.0000 N   0  0  0  0  0  0  0  0  0  0  0  0
    8.9562   -0.7702    0.0000 N   0  0  0  0  0  0  0  0  0  0  0  0
   11.6018   -1.1770    0.0000 N   0  0  0  0  0  0  0  0  0  0  0  0
    3.7601    3.2298    0.0000 C   0  0  3  0  0  0  0  0  0  0  0  0
    3.7601    2.2298    0.0000 C   0  0  0  0  0  0  0  0  0  0  0  0
    4.6261    1.7298    0.0000 C   0  0  3  0  0  0  0  0  0  0  0  0
    4.5691    3.8176    0.0000 C   0  0  0  0  0  0  0  0  0  0  0  0
    4.2601    4.7686    0.0000 C   0  0  0  0  0  0  0  0  0  0  0  0
    5.4921    2.2298    0.0000 C   0  0  0  0  0  0  0  0  0  0  0  0
    2.9511    3.8176    0.0000 C   0  0  0  0  0  0  0  0  0  0  0  0
    5.4921   -0.7702    0.0000 C   0  0  3  0  0  0  0  0  0  0  0  0
    5.4921    0.2298    0.0000 C   0  0  0  0  0  0  0  0  0  0  0  0
    6.3582   -1.2702    0.0000 C   0  0  0  0  0  0  0  0  0  0  0  0
    5.4921    3.2298    0.0000 C   0  0  0  0  0  0  0  0  0  0  0  0
    4.6261   -1.2702    0.0000 C   0  0  0  0  0  0  0  0  0  0  0  0
    8.0902   -1.2702    0.0000 C   0  0  3  0  0  0  0  0  0  0  0  0
    7.2242   -0.7702    0.0000 C   0  0  0  0  0  0  0  0  0  0  0  0
    8.0902   -2.2702    0.0000 C   0  0  0  0  0  0  0  0  0  0  0  0
    4.6261   -2.2702    0.0000 C   0  0  0  0  0  0  0  0  0  0  0  0
    6.3582    3.7298    0.0000 C   0  0  0  0  0  0  0  0  0  0  0  0
    8.9562   -2.7702    0.0000 C   0  0  0  0  0  0  0  0  0  0  0  0
    7.2242   -2.7702    0.0000 C   0  0  0  0  0  0  0  0  0  0  0  0
    5.4921   -2.7702    0.0000 C   0  0  0  0  0  0  0  0  0  0  0  0
    3.7601   -2.7702    0.0000 C   0  0  0  0  0  0  0  0  0  0  0  0
    9.8222   -1.2702    0.0000 C   0  0  0  0  0  0  0  0  0  0  0  0
    5.4921   -3.7702    0.0000 C   0  0  0  0  0  0  0  0  0  0  0  0
    3.7601   -3.7702    0.0000 C   0  0  0  0  0  0  0  0  0  0  0  0
    4.6261   -4.2702    0.0000 C   0  0  0  0  0  0  0  0  0  0  0  0
    8.0902    3.7298    0.0000 C   0  0  0  0  0  0  0  0  0  0  0  0
   10.6883   -0.7702    0.0000 C   0  0  0  0  0  0  0  0  0  0  0  0
    8.9562    3.2298    0.0000 C   0  0  0  0  0  0  0  0  0  0  0  0
   10.7928    0.2243    0.0000 C   0  0  0  0  0  0  0  0  0  0  0  0
   11.7710    0.4322    0.0000 C   0  0  0  0  0  0  0  0  0  0  0  0
   12.1777    1.3458    0.0000 C   0  0  0  0  0  0  0  0  0  0  0  0
    4.3125    2.9483    0.0000 H   0  0  0  0  0  0  0  0  0  0  0  0
    3.1495    2.3374    0.0000 H   0  0  0  0  0  0  0  0  0  0  0  0
    3.5480    1.6472    0.0000 H   0  0  0  0  0  0  0  0  0  0  0  0
    5.1630    1.4198    0.0000 H   0  0  0  0  0  0  0  0  0  0  0  0
    4.8791    3.2806    0.0000 H   0  0  0  0  0  0  0  0  0  0  0  0
    5.1355    4.0698    0.0000 H   0  0  0  0  0  0  0  0  0  0  0  0
    4.8665    4.8975    0.0000 H   0  0  0  0  0  0  0  0  0  0  0  0
    4.1953    5.3852    0.0000 H   0  0  0  0  0  0  0  0  0  0  0  0
    5.7042    1.6472    0.0000 H   0  0  0  0  0  0  0  0  0  0  0  0
    6.1027    2.3374    0.0000 H   0  0  0  0  0  0  0  0  0  0  0  0
    4.0892    0.4198    0.0000 H   0  0  0  0  0  0  0  0  0  0  0  0
    4.9552   -0.4602    0.0000 H   0  0  0  0  0  0  0  0  0  0  0  0
    2.8956    5.2702    0.0000 H   0  0  0  0  0  0  0  0  0  0  0  0
    5.9596   -1.7452    0.0000 H   0  0  0  0  0  0  0  0  0  0  0  0
    6.7567   -1.7452    0.0000 H   0  0  0  0  0  0  0  0  0  0  0  0
    5.2801    3.8124    0.0000 H   0  0  0  0  0  0  0  0  0  0  0  0
    4.8815    3.1221    0.0000 H   0  0  0  0  0  0  0  0  0  0  0  0
    4.4140   -0.6876    0.0000 H   0  0  0  0  0  0  0  0  0  0  0  0
    4.0155   -1.3779    0.0000 H   0  0  0  0  0  0  0  0  0  0  0  0
    8.0902   -0.6502    0.0000 H   0  0  0  0  0  0  0  0  0  0  0  0
    8.0902   -2.8902    0.0000 H   0  0  0  0  0  0  0  0  0  0  0  0
    8.9562   -0.1502    0.0000 H   0  0  0  0  0  0  0  0  0  0  0  0
    8.6462   -3.3072    0.0000 H   0  0  0  0  0  0  0  0  0  0  0  0
    9.4932   -3.0802    0.0000 H   0  0  0  0  0  0  0  0  0  0  0  0
    9.2662   -2.2333    0.0000 H   0  0  0  0  0  0  0  0  0  0  0  0
    6.9142   -2.2333    0.0000 H   0  0  0  0  0  0  0  0  0  0  0  0
    6.6872   -3.0802    0.0000 H   0  0  0  0  0  0  0  0  0  0  0  0
    7.5342   -3.3072    0.0000 H   0  0  0  0  0  0  0  0  0  0  0  0
    6.0291   -2.4602    0.0000 H   0  0  0  0  0  0  0  0  0  0  0  0
    3.2231   -2.4602    0.0000 H   0  0  0  0  0  0  0  0  0  0  0  0
    6.0291   -4.0802    0.0000 H   0  0  0  0  0  0  0  0  0  0  0  0
    3.2231   -4.0802    0.0000 H   0  0  0  0  0  0  0  0  0  0  0  0
    8.4887    4.2047    0.0000 H   0  0  0  0  0  0  0  0  0  0  0  0
    7.6917    4.2047    0.0000 H   0  0  0  0  0  0  0  0  0  0  0  0
    8.6462    2.6928    0.0000 H   0  0  0  0  0  0  0  0  0  0  0  0
    9.4932    2.9198    0.0000 H   0  0  0  0  0  0  0  0  0  0  0  0
    9.2662    3.7667    0.0000 H   0  0  0  0  0  0  0  0  0  0  0  0
   10.3321    0.6392    0.0000 H   0  0  0  0  0  0  0  0  0  0  0  0
   12.7441    1.0936    0.0000 H   0  0  0  0  0  0  0  0  0  0  0  0
   12.4299    1.9122    0.0000 H   0  0  0  0  0  0  0  0  0  0  0  0
   11.6113    1.5979    0.0000 H   0  0  0  0  0  0  0  0  0  0  0  0
  1 37  1  0  0  0  0
  2 19  2  0  0  0  0
  3 21  2  0  0  0  0
  4 26  2  0  0  0  0
  5 29  1  0  0  0  0
  5 38  1  0  0  0  0
  6 29  2  0  0  0  0
  7 34  2  0  0  0  0
  8 12  1  0  0  0  0
  8 42  1  0  0  0  0
  9 15  1  0  0  0  0
  9 21  1  0  0  0  0
  9 54  1  0  0  0  0
 10 17  1  0  0  0  0
 10 19  1  0  0  0  0
 10 56  1  0  0  0  0
 11 25  1  0  0  0  0
 11 34  1  0  0  0  0
 11 65  1  0  0  0  0
 12 39  2  0  0  0  0
 13 14  1  0  0  0  0
 13 16  1  0  0  0  0
 13 19  1  0  0  0  0
 13 44  1  0  0  0  0
 14 15  1  0  0  0  0
 14 45  1  0  0  0  0
 14 46  1  0  0  0  0
 15 18  1  0  0  0  0
 15 47  1  0  0  0  0
 16 17  1  0  0  0  0
 16 48  1  0  0  0  0
 16 49  1  0  0  0  0
 17 50  1  0  0  0  0
 17 51  1  0  0  0  0
 18 23  1  0  0  0  0
 18 52  1  0  0  0  0
 18 53  1  0  0  0  0
 20 21  1  0  0  0  0
 20 22  1  0  0  0  0
 20 24  1  0  0  0  0
 20 55  1  0  0  0  0
 22 26  1  0  0  0  0
 22 57  1  0  0  0  0
 22 58  1  0  0  0  0
 23 29  1  0  0  0  0
 23 59  1  0  0  0  0
 23 60  1  0  0  0  0
 24 28  1  0  0  0  0
 24 61  1  0  0  0  0
 24 62  1  0  0  0  0
 25 26  1  0  0  0  0
 25 27  1  0  0  0  0
 25 63  1  0  0  0  0
 27 30  1  0  0  0  0
 27 31  1  0  0  0  0
 27 64  1  0  0  0  0
 28 32  2  0  0  0  0
 28 33  1  0  0  0  0
 30 66  1  0  0  0  0
 30 67  1  0  0  0  0
 30 68  1  0  0  0  0
 31 69  1  0  0  0  0
 31 70  1  0  0  0  0
 31 71  1  0  0  0  0
 32 35  1  0  0  0  0
 32 72  1  0  0  0  0
 33 36  2  0  0  0  0
 33 73  1  0  0  0  0
 34 39  1  0  0  0  0
 35 37  2  0  0  0  0
 35 74  1  0  0  0  0
 36 37  1  0  0  0  0
 36 75  1  0  0  0  0
 38 40  1  0  0  0  0
 38 76  1  0  0  0  0
 38 77  1  0  0  0  0
 39 41  1  0  0  0  0
 40 78  1  0  0  0  0
 40 79  1  0  0  0  0
 40 80  1  0  0  0  0
 41 42  2  0  0  0  0
 41 81  1  0  0  0  0
 42 43  1  0  0  0  0
 43 82  1  0  0  0  0
 43 83  1  0  0  0  0
 43 84  1  0  0  0  0
M  END
> <PUBCHEM_COMPOUND_CID>
2060

> <PUBCHEM_COMPOUND_CANONICALIZED>
1

> <PUBCHEM_CACTVS_COMPLEXITY>
972

> <PUBCHEM_CACTVS_HBOND_ACCEPTOR>
9

> <PUBCHEM_CACTVS_HBOND_DONOR>
3

> <PUBCHEM_CACTVS_ROTATABLE_BOND>
17

> <PUBCHEM_CACTVS_SUBSKEYS>
AAADcfB7uQAAAAAAAAAAAAAAAAAAAWLAAAAwAAAAAAAAAAABwAAAHwAUAAAADSzhng4yjJLQBACpA6XyWgCCAAAmIgAomKG+bNoIZjqAlbOWMYhmlhiIyce/yeCeAAAAAAAAAAAAAAAAAAAAAAAAAAAAAA==

> <PUBCHEM_IUPAC_OPENEYE_NAME>
ethyl 4-[[2-[(4-fluorophenyl)methyl]-6-methyl-5-[(5-methylisoxazole-3-carbonyl)amino]-4-oxo-heptanoyl]amino]-5-(2-oxopyrrolidin-3-yl)pentanoate

> <PUBCHEM_IUPAC_CAS_NAME>
4-[[2-[(4-fluorophenyl)methyl]-6-methyl-5-[[(5-methyl-3-isoxazolyl)-oxomethyl]amino]-1,4-dioxoheptyl]amino]-5-(2-oxo-3-pyrrolidinyl)pentanoic acid ethyl ester

> <PUBCHEM_IUPAC_NAME_MARKUP>
ethyl 4-[[2-[(4-fluorophenyl)methyl]-6-methyl-5-[(5-methyl-1,2-oxazole-3-carbonyl)amino]-4-oxoheptanoyl]amino]-5-(2-oxopyrrolidin-3-yl)pentanoate

> <PUBCHEM_IUPAC_NAME>
ethyl 4-[[2-[(4-fluorophenyl)methyl]-6-methyl-5-[(5-methyl-1,2-oxazole-3-carbonyl)amino]-4-oxoheptanoyl]amino]-5-(2-oxopyrrolidin-3-yl)pentanoate

> <PUBCHEM_IUPAC_SYSTEMATIC_NAME>
ethyl 4-[[2-[(4-fluorophenyl)methyl]-6-methyl-5-[(5-methyl-1,2-oxazol-3-yl)carbonylamino]-4-oxidanylidene-heptanoyl]amino]-5-(2-oxidanylidenepyrrolidin-3-yl)pentanoate

> <PUBCHEM_IUPAC_TRADITIONAL_NAME>
4-[[2-(4-fluorobenzyl)-4-keto-6-methyl-5-[(5-methylisoxazole-3-carbonyl)amino]heptanoyl]amino]-5-(2-ketopyrrolidin-3-yl)valeric acid ethyl ester

> <PUBCHEM_IUPAC_INCHI>
InChI=1S/C31H41FN4O7/c1-5-42-27(38)11-10-24(16-21-12-13-33-29(21)39)34-30(40)22(15-20-6-8-23(32)9-7-20)17-26(37)28(18(2)3)35-31(41)25-14-19(4)43-36-25/h6-9,14,18,21-22,24,28H,5,10-13,15-17H2,1-4H3,(H,33,39)(H,34,40)(H,35,41)

> <PUBCHEM_IUPAC_INCHIKEY>
LMIUALQNZXJHOG-UHFFFAOYSA-N

> <PUBCHEM_XLOGP3_AA>
3.2

> <PUBCHEM_EXACT_MASS>
600.295928

> <PUBCHEM_MOLECULAR_FORMULA>
C31H41FN4O7

> <PUBCHEM_MOLECULAR_WEIGHT>
600.7

> <PUBCHEM_OPENEYE_CAN_SMILES>
CCOC(=O)CCC(CC1CCNC1=O)NC(=O)C(CC2=CC=C(C=C2)F)CC(=O)C(C(C)C)NC(=O)C3=NOC(=C3)C

> <PUBCHEM_OPENEYE_ISO_SMILES>
CCOC(=O)CCC(CC1CCNC1=O)NC(=O)C(CC2=CC=C(C=C2)F)CC(=O)C(C(C)C)NC(=O)C3=NOC(=C3)C

> <PUBCHEM_CACTVS_TPSA>
157

> <PUBCHEM_MONOISOTOPIC_WEIGHT>
600.295928

> <PUBCHEM_TOTAL_CHARGE>
0

> <PUBCHEM_HEAVY_ATOM_COUNT>
43

> <PUBCHEM_ATOM_DEF_STEREO_COUNT>
0

> <PUBCHEM_ATOM_UDEF_STEREO_COUNT>
4

> <PUBCHEM_BOND_DEF_STEREO_COUNT>
0

> <PUBCHEM_BOND_UDEF_STEREO_COUNT>
0

> <PUBCHEM_ISOTOPIC_ATOM_COUNT>
0

> <PUBCHEM_COMPONENT_COUNT>
1

> <PUBCHEM_CACTVS_TAUTO_COUNT>
-1

> <PUBCHEM_COORDINATE_TYPE>
1
5
255

> <PUBCHEM_BONDANNOTATIONS>
12  39  8
13  14  3
15  18  3
20  24  3
25  27  3
28  32  8
28  33  8
32  35  8
33  36  8
35  37  8
36  37  8
39  41  8
41  42  8
8  12  8
8  42  8

$$$$
492943
  -OEChem-02212016592D

 76 77  0     1  0  0  0  0  0999 V2000
    4.5981   -5.7500    0.0000 F   0  0  0  0  0  0  0  0  0  0  0  0
    6.3301   -1.7500    0.0000 O   0  0  0  0  0  0  0  0  0  0  0  0
    7.1962   -0.2500    0.0000 O   0  0  0  0  0  0  0  0  0  0  0  0
    6.3301    0.2500    0.0000 O   0  0  0  0  0  0  0  0  0  0  0  0
    9.7942   -2.7500    0.0000 O   0  0  0  0  0  0  0  0  0  0  0  0
   12.2429   -0.9136    0.0000 O   0  0  0  0  0  0  0  0  0  0  0  0
    2.0000    2.7500    0.0000 O   0  0  0  0  0  0  0  0  0  0  0  0
    6.3301    4.2500    0.0000 O   0  0  0  0  0  0  0  0  0  0  0  0
    7.1962    2.7500    0.0000 O   0  0  0  0  0  0  0  0  0  0  0  0
    8.9282   -1.2500    0.0000 N   0  0  0  0  0  0  0  0  0  0  0  0
    4.5981    0.2500    0.0000 N   0  0  0  0  0  0  0  0  0  0  0  0
    2.8660    4.2500    0.0000 N   0  0  0  0  0  0  0  0  0  0  0  0
   11.5738   -1.6567    0.0000 N   0  0  0  0  0  0  0  0  0  0  0  0
    8.0622   -2.7500    0.0000 C   0  0  0  0  0  0  0  0  0  0  0  0
    8.0622   -1.7500    0.0000 C   0  0  1  0  0  0  0  0  0  0  0  0
    5.4641   -1.2500    0.0000 C   0  0  1  0  0  0  0  0  0  0  0  0
    4.5981    1.2500    0.0000 C   0  0  1  0  0  0  0  0  0  0  0  0
    7.1962   -1.2500    0.0000 C   0  0  0  0  0  0  0  0  0  0  0  0
    4.5981   -1.7500    0.0000 C   0  0  0  0  0  0  0  0  0  0  0  0
    8.9282   -3.2500    0.0000 C   0  0  0  0  0  0  0  0  0  0  0  0
    7.1962   -3.2500    0.0000 C   0  0  0  0  0  0  0  0  0  0  0  0
    3.7320    1.7500    0.0000 C   0  0  0  0  0  0  0  0  0  0  0  0
    5.4641   -0.2500    0.0000 C   0  0  0  0  0  0  0  0  0  0  0  0
    4.5981   -2.7500    0.0000 C   0  0  0  0  0  0  0  0  0  0  0  0
    3.7320    2.7500    0.0000 C   0  0  0  0  0  0  0  0  0  0  0  0
    5.4641    1.7500    0.0000 C   0  0  0  0  0  0  0  0  0  0  0  0
    9.7942   -1.7500    0.0000 C   0  0  0  0  0  0  0  0  0  0  0  0
    5.4641   -3.2500    0.0000 C   0  0  0  0  0  0  0  0  0  0  0  0
    3.7320   -3.2500    0.0000 C   0  0  0  0  0  0  0  0  0  0  0  0
    2.8660    3.2500    0.0000 C   0  0  0  0  0  0  0  0  0  0  0  0
   10.6603   -1.2500    0.0000 C   0  0  0  0  0  0  0  0  0  0  0  0
    5.4641    2.7500    0.0000 C   0  0  0  0  0  0  0  0  0  0  0  0
    5.4641   -4.2500    0.0000 C   0  0  0  0  0  0  0  0  0  0  0  0
    3.7320   -4.2500    0.0000 C   0  0  0  0  0  0  0  0  0  0  0  0
    4.5981   -4.7500    0.0000 C   0  0  0  0  0  0  0  0  0  0  0  0
   10.7648   -0.2555    0.0000 C   0  0  0  0  0  0  0  0  0  0  0  0
    6.3301    3.2500    0.0000 C   0  0  0  0  0  0  0  0  0  0  0  0
   11.7429   -0.0476    0.0000 C   0  0  0  0  0  0  0  0  0  0  0  0
   12.1497    0.8660    0.0000 C   0  0  0  0  0  0  0  0  0  0  0  0
    7.1962    4.7500    0.0000 C   0  0  0  0  0  0  0  0  0  0  0  0
    7.1962    5.7500    0.0000 C   0  0  0  0  0  0  0  0  0  0  0  0
    8.0622   -3.3700    0.0000 H   0  0  0  0  0  0  0  0  0  0  0  0
    8.0622   -1.1300    0.0000 H   0  0  0  0  0  0  0  0  0  0  0  0
    5.4641   -1.8700    0.0000 H   0  0  0  0  0  0  0  0  0  0  0  0
    5.1350    0.9400    0.0000 H   0  0  0  0  0  0  0  0  0  0  0  0
    4.3860   -1.1674    0.0000 H   0  0  0  0  0  0  0  0  0  0  0  0
    3.9875   -1.8577    0.0000 H   0  0  0  0  0  0  0  0  0  0  0  0
    8.6182   -3.7869    0.0000 H   0  0  0  0  0  0  0  0  0  0  0  0
    9.4651   -3.5600    0.0000 H   0  0  0  0  0  0  0  0  0  0  0  0
    9.2382   -2.7131    0.0000 H   0  0  0  0  0  0  0  0  0  0  0  0
    6.8862   -2.7131    0.0000 H   0  0  0  0  0  0  0  0  0  0  0  0
    6.6592   -3.5600    0.0000 H   0  0  0  0  0  0  0  0  0  0  0  0
    7.5062   -3.7869    0.0000 H   0  0  0  0  0  0  0  0  0  0  0  0
    3.1215    1.8577    0.0000 H   0  0  0  0  0  0  0  0  0  0  0  0
    3.5200    1.1674    0.0000 H   0  0  0  0  0  0  0  0  0  0  0  0
    8.9282   -0.6300    0.0000 H   0  0  0  0  0  0  0  0  0  0  0  0
    4.0611   -0.0600    0.0000 H   0  0  0  0  0  0  0  0  0  0  0  0
    4.3426    2.6423    0.0000 H   0  0  0  0  0  0  0  0  0  0  0  0
    3.9441    3.3326    0.0000 H   0  0  0  0  0  0  0  0  0  0  0  0
    6.0010    1.4400    0.0000 H   0  0  0  0  0  0  0  0  0  0  0  0
    6.0010   -2.9400    0.0000 H   0  0  0  0  0  0  0  0  0  0  0  0
    3.1951   -2.9400    0.0000 H   0  0  0  0  0  0  0  0  0  0  0  0
    4.9272    3.0600    0.0000 H   0  0  0  0  0  0  0  0  0  0  0  0
    6.0010   -4.5600    0.0000 H   0  0  0  0  0  0  0  0  0  0  0  0
    3.1951   -4.5600    0.0000 H   0  0  0  0  0  0  0  0  0  0  0  0
   10.3040    0.1594    0.0000 H   0  0  0  0  0  0  0  0  0  0  0  0
    2.3291    4.5600    0.0000 H   0  0  0  0  0  0  0  0  0  0  0  0
    3.4030    4.5600    0.0000 H   0  0  0  0  0  0  0  0  0  0  0  0
   12.7161    0.6138    0.0000 H   0  0  0  0  0  0  0  0  0  0  0  0
   12.4018    1.4324    0.0000 H   0  0  0  0  0  0  0  0  0  0  0  0
   11.5833    1.1182    0.0000 H   0  0  0  0  0  0  0  0  0  0  0  0
    7.4082    4.1674    0.0000 H   0  0  0  0  0  0  0  0  0  0  0  0
    7.8067    4.8577    0.0000 H   0  0  0  0  0  0  0  0  0  0  0  0
    7.8162    5.7500    0.0000 H   0  0  0  0  0  0  0  0  0  0  0  0
    7.1962    6.3700    0.0000 H   0  0  0  0  0  0  0  0  0  0  0  0
    6.5762    5.7500    0.0000 H   0  0  0  0  0  0  0  0  0  0  0  0
  1 35  1  0  0  0  0
 16  2  1  1  0  0  0
  2 18  1  0  0  0  0
  3 18  2  0  0  0  0
  4 23  2  0  0  0  0
  5 27  2  0  0  0  0
  6 13  1  0  0  0  0
  6 38  1  0  0  0  0
  7 30  2  0  0  0  0
  8 37  1  0  0  0  0
  8 40  1  0  0  0  0
  9 37  2  0  0  0  0
 15 10  1  1  0  0  0
 10 27  1  0  0  0  0
 10 56  1  0  0  0  0
 17 11  1  1  0  0  0
 11 23  1  0  0  0  0
 11 57  1  0  0  0  0
 12 30  1  0  0  0  0
 12 67  1  0  0  0  0
 12 68  1  0  0  0  0
 13 31  2  0  0  0  0
 14 15  1  0  0  0  0
 14 20  1  0  0  0  0
 14 21  1  0  0  0  0
 14 42  1  0  0  0  0
 15 18  1  0  0  0  0
 15 43  1  0  0  0  0
 16 19  1  0  0  0  0
 16 23  1  0  0  0  0
 16 44  1  0  0  0  0
 17 22  1  0  0  0  0
 17 26  1  0  0  0  0
 17 45  1  0  0  0  0
 19 24  1  0  0  0  0
 19 46  1  0  0  0  0
 19 47  1  0  0  0  0
 20 48  1  0  0  0  0
 20 49  1  0  0  0  0
 20 50  1  0  0  0  0
 21 51  1  0  0  0  0
 21 52  1  0  0  0  0
 21 53  1  0  0  0  0
 22 25  1  0  0  0  0
 22 54  1  0  0  0  0
 22 55  1  0  0  0  0
 24 28  2  0  0  0  0
 24 29  1  0  0  0  0
 25 30  1  0  0  0  0
 25 58  1  0  0  0  0
 25 59  1  0  0  0  0
 26 32  2  3  0  0  0
 26 60  1  0  0  0  0
 27 31  1  0  0  0  0
 28 33  1  0  0  0  0
 28 61  1  0  0  0  0
 29 34  2  0  0  0  0
 29 62  1  0  0  0  0
 31 36  1  0  0  0  0
 32 37  1  0  0  0  0
 32 63  1  0  0  0  0
 33 35  2  0  0  0  0
 33 64  1  0  0  0  0
 34 35  1  0  0  0  0
 34 65  1  0  0  0  0
 36 38  2  0  0  0  0
 36 66  1  0  0  0  0
 38 39  1  0  0  0  0
 39 69  1  0  0  0  0
 39 70  1  0  0  0  0
 39 71  1  0  0  0  0
 40 41  1  0  0  0  0
 40 72  1  0  0  0  0
 40 73  1  0  0  0  0
 41 74  1  0  0  0  0
 41 75  1  0  0  0  0
 41 76  1  0  0  0  0
M  END
> <PUBCHEM_COMPOUND_CID>
492943

> <PUBCHEM_COMPOUND_CANONICALIZED>
1

> <PUBCHEM_CACTVS_COMPLEXITY>
938

> <PUBCHEM_CACTVS_HBOND_ACCEPTOR>
10

> <PUBCHEM_CACTVS_HBOND_DONOR>
3

> <PUBCHEM_CACTVS_ROTATABLE_BOND>
17

> <PUBCHEM_CACTVS_SUBSKEYS>
AAADcfB7vQAAAAAAAAAAAAAAAAAAAWAAAAAwAAAAAAAAAAABwAAAHwAUAAAADTzhng4yjJLQBACpA6XyWgKCAAAmIgAomKH+bNoKZjqAtbeXMYhm1hmY6ce/yKCOAAAAAAAAAAAAAAAAAAAAAAAAAAAAAA==

> <PUBCHEM_IUPAC_OPENEYE_NAME>
ethyl (4S)-7-amino-4-[[(2S)-3-(4-fluorophenyl)-2-[(2S)-3-methyl-2-[(5-methylisoxazole-3-carbonyl)amino]butanoyl]oxy-propanoyl]amino]-7-oxo-hept-2-enoate

> <PUBCHEM_IUPAC_CAS_NAME>
(4S)-7-amino-4-[[(2S)-3-(4-fluorophenyl)-2-[(2S)-3-methyl-2-[[(5-methyl-3-isoxazolyl)-oxomethyl]amino]-1-oxobutoxy]-1-oxopropyl]amino]-7-oxo-2-heptenoic acid ethyl ester

> <PUBCHEM_IUPAC_NAME_MARKUP>
ethyl (4<I>S</I>)-7-amino-4-[[(2<I>S</I>)-3-(4-fluorophenyl)-2-[(2<I>S</I>)-3-methyl-2-[(5-methyl-1,2-oxazole-3-carbonyl)amino]butanoyl]oxypropanoyl]amino]-7-oxohept-2-enoate

> <PUBCHEM_IUPAC_NAME>
ethyl (4S)-7-amino-4-[[(2S)-3-(4-fluorophenyl)-2-[(2S)-3-methyl-2-[(5-methyl-1,2-oxazole-3-carbonyl)amino]butanoyl]oxypropanoyl]amino]-7-oxohept-2-enoate

> <PUBCHEM_IUPAC_SYSTEMATIC_NAME>
ethyl (4S)-7-azanyl-4-[[(2S)-3-(4-fluorophenyl)-2-[(2S)-3-methyl-2-[(5-methyl-1,2-oxazol-3-yl)carbonylamino]butanoyl]oxy-propanoyl]amino]-7-oxidanylidene-hept-2-enoate

> <PUBCHEM_IUPAC_TRADITIONAL_NAME>
(4S)-7-amino-4-[[(2S)-3-(4-fluorophenyl)-2-[(2S)-3-methyl-2-[(5-methylisoxazole-3-carbonyl)amino]butanoyl]oxy-propanoyl]amino]-7-keto-hept-2-enoic acid ethyl ester

> <PUBCHEM_IUPAC_INCHI>
InChI=1S/C28H35FN4O8/c1-5-39-24(35)13-11-20(10-12-23(30)34)31-27(37)22(15-18-6-8-19(29)9-7-18)40-28(38)25(16(2)3)32-26(36)21-14-17(4)41-33-21/h6-9,11,13-14,16,20,22,25H,5,10,12,15H2,1-4H3,(H2,30,34)(H,31,37)(H,32,36)/t20-,22-,25-/m0/s1

> <PUBCHEM_IUPAC_INCHIKEY>
YJFMXXPPIPGSGB-XTJBDQBJSA-N

> <PUBCHEM_XLOGP3_AA>
2.9

> <PUBCHEM_EXACT_MASS>
574.243892

> <PUBCHEM_MOLECULAR_FORMULA>
C28H35FN4O8

> <PUBCHEM_MOLECULAR_WEIGHT>
574.6

> <PUBCHEM_OPENEYE_CAN_SMILES>
CCOC(=O)C=CC(CCC(=O)N)NC(=O)C(CC1=CC=C(C=C1)F)OC(=O)C(C(C)C)NC(=O)C2=NOC(=C2)C

> <PUBCHEM_OPENEYE_ISO_SMILES>
CCOC(=O)C=C[C@H](CCC(=O)N)NC(=O)[C@H](CC1=CC=C(C=C1)F)OC(=O)[C@H](C(C)C)NC(=O)C2=NOC(=C2)C

> <PUBCHEM_CACTVS_TPSA>
180

> <PUBCHEM_MONOISOTOPIC_WEIGHT>
574.243892

> <PUBCHEM_TOTAL_CHARGE>
0

> <PUBCHEM_HEAVY_ATOM_COUNT>
41

> <PUBCHEM_ATOM_DEF_STEREO_COUNT>
3

> <PUBCHEM_ATOM_UDEF_STEREO_COUNT>
0

> <PUBCHEM_BOND_DEF_STEREO_COUNT>
0

> <PUBCHEM_BOND_UDEF_STEREO_COUNT>
1

> <PUBCHEM_ISOTOPIC_ATOM_COUNT>
0

> <PUBCHEM_COMPONENT_COUNT>
1

> <PUBCHEM_CACTVS_TAUTO_COUNT>
-1

> <PUBCHEM_COORDINATE_TYPE>
1
5
255

> <PUBCHEM_BONDANNOTATIONS>
15  10  5
17  11  5
13  31  8
16  2  5
24  28  8
24  29  8
26  32  1
28  33  8
29  34  8
31  36  8
33  35  8
34  35  8
36  38  8
6  13  8
6  38  8

$$$$
492944
  -OEChem-02212016592D

 77 78  0     1  0  0  0  0  0999 V2000
    6.3092   -4.8512    0.0000 F   0  0  0  0  0  0  0  0  0  0  0  0
    5.4432    0.6488    0.0000 O   0  0  0  0  0  0  0  0  0  0  0  0
    8.0413   -1.8512    0.0000 O   0  0  0  0  0  0  0  0  0  0  0  0
    6.3092    4.1488    0.0000 O   0  0  0  0  0  0  0  0  0  0  0  0
    3.4945    5.3512    0.0000 O   0  0  0  0  0  0  0  0  0  0  0  0
   12.3714    0.6488    0.0000 O   0  0  0  0  0  0  0  0  0  0  0  0
   11.5054   -3.8512    0.0000 O   0  0  0  0  0  0  0  0  0  0  0  0
    9.7734   -3.8512    0.0000 O   0  0  0  0  0  0  0  0  0  0  0  0
    7.1753    0.6488    0.0000 N   0  0  0  0  0  0  0  0  0  0  0  0
    5.4432    2.6488    0.0000 N   0  0  0  0  0  0  0  0  0  0  0  0
    8.9073   -0.3512    0.0000 N   0  0  0  0  0  0  0  0  0  0  0  0
    4.4727    5.1433    0.0000 N   0  0  0  0  0  0  0  0  0  0  0  0
   13.2375   -0.8512    0.0000 N   0  0  0  0  0  0  0  0  0  0  0  0
    6.3092    2.1488    0.0000 C   0  0  1  0  0  0  0  0  0  0  0  0
    7.1753    2.6488    0.0000 C   0  0  0  0  0  0  0  0  0  0  0  0
    7.1753   -0.3512    0.0000 C   0  0  1  0  0  0  0  0  0  0  0  0
    6.3092    1.1488    0.0000 C   0  0  0  0  0  0  0  0  0  0  0  0
    6.3092   -0.8512    0.0000 C   0  0  0  0  0  0  0  0  0  0  0  0
    9.7734   -0.8512    0.0000 C   0  0  1  0  0  0  0  0  0  0  0  0
    8.0413   -0.8512    0.0000 C   0  0  0  0  0  0  0  0  0  0  0  0
    7.1753    3.6488    0.0000 C   0  0  0  0  0  0  0  0  0  0  0  0
    8.0413    2.1488    0.0000 C   0  0  0  0  0  0  0  0  0  0  0  0
   10.6394   -0.3512    0.0000 C   0  0  0  0  0  0  0  0  0  0  0  0
    6.3092   -1.8512    0.0000 C   0  0  0  0  0  0  0  0  0  0  0  0
   11.5054   -0.8512    0.0000 C   0  0  0  0  0  0  0  0  0  0  0  0
    9.7734   -1.8512    0.0000 C   0  0  0  0  0  0  0  0  0  0  0  0
    5.4432    3.6488    0.0000 C   0  0  0  0  0  0  0  0  0  0  0  0
    7.1753   -2.3512    0.0000 C   0  0  0  0  0  0  0  0  0  0  0  0
    5.4432   -2.3512    0.0000 C   0  0  0  0  0  0  0  0  0  0  0  0
    4.5772    4.1488    0.0000 C   0  0  0  0  0  0  0  0  0  0  0  0
   12.3714   -0.3512    0.0000 C   0  0  0  0  0  0  0  0  0  0  0  0
    7.1753   -3.3512    0.0000 C   0  0  0  0  0  0  0  0  0  0  0  0
    5.4432   -3.3512    0.0000 C   0  0  0  0  0  0  0  0  0  0  0  0
   10.6394   -2.3512    0.0000 C   0  0  0  0  0  0  0  0  0  0  0  0
    6.3092   -3.8512    0.0000 C   0  0  0  0  0  0  0  0  0  0  0  0
    3.6636    3.7420    0.0000 C   0  0  0  0  0  0  0  0  0  0  0  0
   10.6394   -3.3512    0.0000 C   0  0  0  0  0  0  0  0  0  0  0  0
    2.9945    4.4852    0.0000 C   0  0  0  0  0  0  0  0  0  0  0  0
    2.0000    4.3807    0.0000 C   0  0  0  0  0  0  0  0  0  0  0  0
   11.5054   -4.8512    0.0000 C   0  0  0  0  0  0  0  0  0  0  0  0
   12.3714   -5.3512    0.0000 C   0  0  0  0  0  0  0  0  0  0  0  0
    6.3092    2.7688    0.0000 H   0  0  0  0  0  0  0  0  0  0  0  0
    7.1753    2.0288    0.0000 H   0  0  0  0  0  0  0  0  0  0  0  0
    7.7122   -0.0412    0.0000 H   0  0  0  0  0  0  0  0  0  0  0  0
    6.0972   -0.2686    0.0000 H   0  0  0  0  0  0  0  0  0  0  0  0
    5.6987   -0.9589    0.0000 H   0  0  0  0  0  0  0  0  0  0  0  0
    7.7122    0.9588    0.0000 H   0  0  0  0  0  0  0  0  0  0  0  0
    9.7734   -0.2312    0.0000 H   0  0  0  0  0  0  0  0  0  0  0  0
    7.7953    3.6488    0.0000 H   0  0  0  0  0  0  0  0  0  0  0  0
    7.1753    4.2688    0.0000 H   0  0  0  0  0  0  0  0  0  0  0  0
    6.5553    3.6488    0.0000 H   0  0  0  0  0  0  0  0  0  0  0  0
    7.7313    1.6118    0.0000 H   0  0  0  0  0  0  0  0  0  0  0  0
    8.5782    1.8388    0.0000 H   0  0  0  0  0  0  0  0  0  0  0  0
    8.3513    2.6857    0.0000 H   0  0  0  0  0  0  0  0  0  0  0  0
    4.9063    2.3388    0.0000 H   0  0  0  0  0  0  0  0  0  0  0  0
    8.9073    0.2688    0.0000 H   0  0  0  0  0  0  0  0  0  0  0  0
   11.0379    0.1237    0.0000 H   0  0  0  0  0  0  0  0  0  0  0  0
   10.2408    0.1237    0.0000 H   0  0  0  0  0  0  0  0  0  0  0  0
   11.1069   -1.3262    0.0000 H   0  0  0  0  0  0  0  0  0  0  0  0
   11.9039   -1.3262    0.0000 H   0  0  0  0  0  0  0  0  0  0  0  0
    9.2364   -2.1612    0.0000 H   0  0  0  0  0  0  0  0  0  0  0  0
    7.7122   -2.0412    0.0000 H   0  0  0  0  0  0  0  0  0  0  0  0
    4.9063   -2.0412    0.0000 H   0  0  0  0  0  0  0  0  0  0  0  0
    7.7122   -3.6612    0.0000 H   0  0  0  0  0  0  0  0  0  0  0  0
    4.9063   -3.6612    0.0000 H   0  0  0  0  0  0  0  0  0  0  0  0
   11.1763   -2.0412    0.0000 H   0  0  0  0  0  0  0  0  0  0  0  0
    3.5348    3.1356    0.0000 H   0  0  0  0  0  0  0  0  0  0  0  0
   13.7744   -0.5412    0.0000 H   0  0  0  0  0  0  0  0  0  0  0  0
   13.2375   -1.4712    0.0000 H   0  0  0  0  0  0  0  0  0  0  0  0
    1.9352    4.9973    0.0000 H   0  0  0  0  0  0  0  0  0  0  0  0
    1.3834    4.3159    0.0000 H   0  0  0  0  0  0  0  0  0  0  0  0
    2.0648    3.7641    0.0000 H   0  0  0  0  0  0  0  0  0  0  0  0
   10.8948   -4.7436    0.0000 H   0  0  0  0  0  0  0  0  0  0  0  0
   11.2933   -5.4338    0.0000 H   0  0  0  0  0  0  0  0  0  0  0  0
   12.0614   -5.8882    0.0000 H   0  0  0  0  0  0  0  0  0  0  0  0
   12.9084   -5.6612    0.0000 H   0  0  0  0  0  0  0  0  0  0  0  0
   12.6814   -4.8143    0.0000 H   0  0  0  0  0  0  0  0  0  0  0  0
  1 35  1  0  0  0  0
  2 17  2  0  0  0  0
  3 20  2  0  0  0  0
  4 27  2  0  0  0  0
  5 12  1  0  0  0  0
  5 38  1  0  0  0  0
  6 31  2  0  0  0  0
  7 37  1  0  0  0  0
  7 40  1  0  0  0  0
  8 37  2  0  0  0  0
 16  9  1  6  0  0  0
  9 17  1  0  0  0  0
  9 47  1  0  0  0  0
 14 10  1  1  0  0  0
 10 27  1  0  0  0  0
 10 55  1  0  0  0  0
 19 11  1  1  0  0  0
 11 20  1  0  0  0  0
 11 56  1  0  0  0  0
 12 30  2  0  0  0  0
 13 31  1  0  0  0  0
 13 68  1  0  0  0  0
 13 69  1  0  0  0  0
 14 15  1  0  0  0  0
 14 17  1  0  0  0  0
 14 42  1  0  0  0  0
 15 21  1  0  0  0  0
 15 22  1  0  0  0  0
 15 43  1  0  0  0  0
 16 18  1  0  0  0  0
 16 20  1  0  0  0  0
 16 44  1  0  0  0  0
 18 24  1  0  0  0  0
 18 45  1  0  0  0  0
 18 46  1  0  0  0  0
 19 23  1  0  0  0  0
 19 26  1  0  0  0  0
 19 48  1  0  0  0  0
 21 49  1  0  0  0  0
 21 50  1  0  0  0  0
 21 51  1  0  0  0  0
 22 52  1  0  0  0  0
 22 53  1  0  0  0  0
 22 54  1  0  0  0  0
 23 25  1  0  0  0  0
 23 57  1  0  0  0  0
 23 58  1  0  0  0  0
 24 28  2  0  0  0  0
 24 29  1  0  0  0  0
 25 31  1  0  0  0  0
 25 59  1  0  0  0  0
 25 60  1  0  0  0  0
 26 34  2  3  0  0  0
 26 61  1  0  0  0  0
 27 30  1  0  0  0  0
 28 32  1  0  0  0  0
 28 62  1  0  0  0  0
 29 33  2  0  0  0  0
 29 63  1  0  0  0  0
 30 36  1  0  0  0  0
 32 35  2  0  0  0  0
 32 64  1  0  0  0  0
 33 35  1  0  0  0  0
 33 65  1  0  0  0  0
 34 37  1  0  0  0  0
 34 66  1  0  0  0  0
 36 38  2  0  0  0  0
 36 67  1  0  0  0  0
 38 39  1  0  0  0  0
 39 70  1  0  0  0  0
 39 71  1  0  0  0  0
 39 72  1  0  0  0  0
 40 41  1  0  0  0  0
 40 73  1  0  0  0  0
 40 74  1  0  0  0  0
 41 75  1  0  0  0  0
 41 76  1  0  0  0  0
 41 77  1  0  0  0  0
M  END
> <PUBCHEM_COMPOUND_CID>
492944

> <PUBCHEM_COMPOUND_CANONICALIZED>
1

> <PUBCHEM_CACTVS_COMPLEXITY>
939

> <PUBCHEM_CACTVS_HBOND_ACCEPTOR>
9

> <PUBCHEM_CACTVS_HBOND_DONOR>
4

> <PUBCHEM_CACTVS_ROTATABLE_BOND>
16

> <PUBCHEM_CACTVS_SUBSKEYS>
AAADcfB7uQAAAAAAAAAAAAAAAAAAAWAAAAAwAAAAAAAAAAABwAAAHwAUAAAADSzhng4yjJLQBACpA6XyWgCCAAAmIgAomKG+bNoIZjqAtbOWMYhmlhiI6cc/iICOAAAAAAAAAAAAAAAAAAAAAAAAAAAAAA==

> <PUBCHEM_IUPAC_OPENEYE_NAME>
ethyl (4S)-7-amino-4-[[(2S)-3-(4-fluorophenyl)-2-[[(2S)-3-methyl-2-[(5-methylisoxazole-3-carbonyl)amino]butanoyl]amino]propanoyl]amino]-7-oxo-hept-2-enoate

> <PUBCHEM_IUPAC_CAS_NAME>
(4S)-7-amino-4-[[(2S)-3-(4-fluorophenyl)-2-[[(2S)-3-methyl-2-[[(5-methyl-3-isoxazolyl)-oxomethyl]amino]-1-oxobutyl]amino]-1-oxopropyl]amino]-7-oxo-2-heptenoic acid ethyl ester

> <PUBCHEM_IUPAC_NAME_MARKUP>
ethyl (4<I>S</I>)-7-amino-4-[[(2<I>S</I>)-3-(4-fluorophenyl)-2-[[(2<I>S</I>)-3-methyl-2-[(5-methyl-1,2-oxazole-3-carbonyl)amino]butanoyl]amino]propanoyl]amino]-7-oxohept-2-enoate

> <PUBCHEM_IUPAC_NAME>
ethyl (4S)-7-amino-4-[[(2S)-3-(4-fluorophenyl)-2-[[(2S)-3-methyl-2-[(5-methyl-1,2-oxazole-3-carbonyl)amino]butanoyl]amino]propanoyl]amino]-7-oxohept-2-enoate

> <PUBCHEM_IUPAC_SYSTEMATIC_NAME>
ethyl (4S)-7-azanyl-4-[[(2S)-3-(4-fluorophenyl)-2-[[(2S)-3-methyl-2-[(5-methyl-1,2-oxazol-3-yl)carbonylamino]butanoyl]amino]propanoyl]amino]-7-oxidanylidene-hept-2-enoate

> <PUBCHEM_IUPAC_TRADITIONAL_NAME>
(4S)-7-amino-4-[[(2S)-3-(4-fluorophenyl)-2-[[(2S)-3-methyl-2-[(5-methylisoxazole-3-carbonyl)amino]butanoyl]amino]propanoyl]amino]-7-keto-hept-2-enoic acid ethyl ester

> <PUBCHEM_IUPAC_INCHI>
InChI=1S/C28H36FN5O7/c1-5-40-24(36)13-11-20(10-12-23(30)35)31-26(37)21(15-18-6-8-19(29)9-7-18)32-28(39)25(16(2)3)33-27(38)22-14-17(4)41-34-22/h6-9,11,13-14,16,20-21,25H,5,10,12,15H2,1-4H3,(H2,30,35)(H,31,37)(H,32,39)(H,33,38)/t20-,21-,25-/m0/s1

> <PUBCHEM_IUPAC_INCHIKEY>
UFMNDOUAXQOQTP-WATLYSKOSA-N

> <PUBCHEM_XLOGP3_AA>
2.3

> <PUBCHEM_EXACT_MASS>
573.259877

> <PUBCHEM_MOLECULAR_FORMULA>
C28H36FN5O7

> <PUBCHEM_MOLECULAR_WEIGHT>
573.6

> <PUBCHEM_OPENEYE_CAN_SMILES>
CCOC(=O)C=CC(CCC(=O)N)NC(=O)C(CC1=CC=C(C=C1)F)NC(=O)C(C(C)C)NC(=O)C2=NOC(=C2)C

> <PUBCHEM_OPENEYE_ISO_SMILES>
CCOC(=O)C=C[C@H](CCC(=O)N)NC(=O)[C@H](CC1=CC=C(C=C1)F)NC(=O)[C@H](C(C)C)NC(=O)C2=NOC(=C2)C

> <PUBCHEM_CACTVS_TPSA>
183

> <PUBCHEM_MONOISOTOPIC_WEIGHT>
573.259877

> <PUBCHEM_TOTAL_CHARGE>
0

> <PUBCHEM_HEAVY_ATOM_COUNT>
41

> <PUBCHEM_ATOM_DEF_STEREO_COUNT>
3

> <PUBCHEM_ATOM_UDEF_STEREO_COUNT>
0

> <PUBCHEM_BOND_DEF_STEREO_COUNT>
0

> <PUBCHEM_BOND_UDEF_STEREO_COUNT>
1

> <PUBCHEM_ISOTOPIC_ATOM_COUNT>
0

> <PUBCHEM_COMPONENT_COUNT>
1

> <PUBCHEM_CACTVS_TAUTO_COUNT>
-1

> <PUBCHEM_COORDINATE_TYPE>
1
5
255

> <PUBCHEM_BONDANNOTATIONS>
14  10  5
19  11  5
12  30  8
24  28  8
24  29  8
26  34  1
28  32  8
29  33  8
30  36  8
32  35  8
33  35  8
36  38  8
5  12  8
5  38  8
16  9  6

$$$$
492946
  -OEChem-02212016592D

 80 82  0     1  0  0  0  0  0999 V2000
    4.6261   -5.2702    0.0000 F   0  0  0  0  0  0  0  0  0  0  0  0
    2.0000    3.5086    0.0000 O   0  0  0  0  0  0  0  0  0  0  0  0
    6.3582   -1.2702    0.0000 O   0  0  0  0  0  0  0  0  0  0  0  0
    6.3582    0.7298    0.0000 O   0  0  0  0  0  0  0  0  0  0  0  0
    7.2242    0.2298    0.0000 O   0  0  0  0  0  0  0  0  0  0  0  0
    7.2242    3.2298    0.0000 O   0  0  0  0  0  0  0  0  0  0  0  0
    6.3582    4.7298    0.0000 O   0  0  0  0  0  0  0  0  0  0  0  0
    9.8222   -2.2702    0.0000 O   0  0  0  0  0  0  0  0  0  0  0  0
   12.2710   -0.4338    0.0000 O   0  0  0  0  0  0  0  0  0  0  0  0
    3.2601    4.7686    0.0000 N   0  0  0  0  0  0  0  0  0  0  0  0
    4.6261    0.7298    0.0000 N   0  0  0  0  0  0  0  0  0  0  0  0
    8.9562   -0.7702    0.0000 N   0  0  0  0  0  0  0  0  0  0  0  0
   11.6018   -1.1770    0.0000 N   0  0  0  0  0  0  0  0  0  0  0  0
    3.7601    3.2298    0.0000 C   0  0  1  0  0  0  0  0  0  0  0  0
    4.5691    3.8176    0.0000 C   0  0  0  0  0  0  0  0  0  0  0  0
    3.7601    2.2298    0.0000 C   0  0  0  0  0  0  0  0  0  0  0  0
    4.2601    4.7686    0.0000 C   0  0  0  0  0  0  0  0  0  0  0  0
    4.6261    1.7298    0.0000 C   0  0  1  0  0  0  0  0  0  0  0  0
    2.9511    3.8176    0.0000 C   0  0  0  0  0  0  0  0  0  0  0  0
    5.4921    2.2298    0.0000 C   0  0  0  0  0  0  0  0  0  0  0  0
    5.4921   -0.7702    0.0000 C   0  0  2  0  0  0  0  0  0  0  0  0
    5.4921    0.2298    0.0000 C   0  0  0  0  0  0  0  0  0  0  0  0
    8.0902   -1.2702    0.0000 C   0  0  1  0  0  0  0  0  0  0  0  0
    4.6261   -1.2702    0.0000 C   0  0  0  0  0  0  0  0  0  0  0  0
    8.0902   -2.2702    0.0000 C   0  0  0  0  0  0  0  0  0  0  0  0
    5.4921    3.2298    0.0000 C   0  0  0  0  0  0  0  0  0  0  0  0
    7.2242   -0.7702    0.0000 C   0  0  0  0  0  0  0  0  0  0  0  0
    4.6261   -2.2702    0.0000 C   0  0  0  0  0  0  0  0  0  0  0  0
    8.9562   -2.7702    0.0000 C   0  0  0  0  0  0  0  0  0  0  0  0
    7.2242   -2.7702    0.0000 C   0  0  0  0  0  0  0  0  0  0  0  0
    6.3582    3.7298    0.0000 C   0  0  0  0  0  0  0  0  0  0  0  0
    5.4921   -2.7702    0.0000 C   0  0  0  0  0  0  0  0  0  0  0  0
    3.7601   -2.7702    0.0000 C   0  0  0  0  0  0  0  0  0  0  0  0
    9.8222   -1.2702    0.0000 C   0  0  0  0  0  0  0  0  0  0  0  0
    5.4921   -3.7702    0.0000 C   0  0  0  0  0  0  0  0  0  0  0  0
    3.7601   -3.7702    0.0000 C   0  0  0  0  0  0  0  0  0  0  0  0
   10.6883   -0.7702    0.0000 C   0  0  0  0  0  0  0  0  0  0  0  0
    4.6261   -4.2702    0.0000 C   0  0  0  0  0  0  0  0  0  0  0  0
    8.0902    3.7298    0.0000 C   0  0  0  0  0  0  0  0  0  0  0  0
   10.7928    0.2243    0.0000 C   0  0  0  0  0  0  0  0  0  0  0  0
   11.7710    0.4322    0.0000 C   0  0  0  0  0  0  0  0  0  0  0  0
    8.9562    3.2298    0.0000 C   0  0  0  0  0  0  0  0  0  0  0  0
   12.1777    1.3458    0.0000 C   0  0  0  0  0  0  0  0  0  0  0  0
    4.3125    2.9483    0.0000 H   0  0  0  0  0  0  0  0  0  0  0  0
    4.8791    3.2806    0.0000 H   0  0  0  0  0  0  0  0  0  0  0  0
    5.1355    4.0698    0.0000 H   0  0  0  0  0  0  0  0  0  0  0  0
    3.1495    2.3374    0.0000 H   0  0  0  0  0  0  0  0  0  0  0  0
    3.5480    1.6472    0.0000 H   0  0  0  0  0  0  0  0  0  0  0  0
    4.8665    4.8975    0.0000 H   0  0  0  0  0  0  0  0  0  0  0  0
    4.1953    5.3852    0.0000 H   0  0  0  0  0  0  0  0  0  0  0  0
    5.1630    1.4198    0.0000 H   0  0  0  0  0  0  0  0  0  0  0  0
    2.8956    5.2702    0.0000 H   0  0  0  0  0  0  0  0  0  0  0  0
    4.0892    0.4198    0.0000 H   0  0  0  0  0  0  0  0  0  0  0  0
    6.0291    1.9198    0.0000 H   0  0  0  0  0  0  0  0  0  0  0  0
    6.0291   -0.4602    0.0000 H   0  0  0  0  0  0  0  0  0  0  0  0
    8.0902   -0.6502    0.0000 H   0  0  0  0  0  0  0  0  0  0  0  0
    4.4140   -0.6876    0.0000 H   0  0  0  0  0  0  0  0  0  0  0  0
    4.0155   -1.3779    0.0000 H   0  0  0  0  0  0  0  0  0  0  0  0
    8.0902   -2.8902    0.0000 H   0  0  0  0  0  0  0  0  0  0  0  0
    4.9552    3.5398    0.0000 H   0  0  0  0  0  0  0  0  0  0  0  0
    8.6462   -3.3072    0.0000 H   0  0  0  0  0  0  0  0  0  0  0  0
    9.4932   -3.0802    0.0000 H   0  0  0  0  0  0  0  0  0  0  0  0
    9.2662   -2.2333    0.0000 H   0  0  0  0  0  0  0  0  0  0  0  0
    6.9142   -2.2333    0.0000 H   0  0  0  0  0  0  0  0  0  0  0  0
    6.6872   -3.0802    0.0000 H   0  0  0  0  0  0  0  0  0  0  0  0
    7.5342   -3.3072    0.0000 H   0  0  0  0  0  0  0  0  0  0  0  0
    8.9562   -0.1502    0.0000 H   0  0  0  0  0  0  0  0  0  0  0  0
    6.0291   -2.4602    0.0000 H   0  0  0  0  0  0  0  0  0  0  0  0
    3.2231   -2.4602    0.0000 H   0  0  0  0  0  0  0  0  0  0  0  0
    6.0291   -4.0802    0.0000 H   0  0  0  0  0  0  0  0  0  0  0  0
    3.2231   -4.0802    0.0000 H   0  0  0  0  0  0  0  0  0  0  0  0
    8.4887    4.2047    0.0000 H   0  0  0  0  0  0  0  0  0  0  0  0
    7.6917    4.2047    0.0000 H   0  0  0  0  0  0  0  0  0  0  0  0
   10.3321    0.6392    0.0000 H   0  0  0  0  0  0  0  0  0  0  0  0
    8.6462    2.6928    0.0000 H   0  0  0  0  0  0  0  0  0  0  0  0
    9.4932    2.9198    0.0000 H   0  0  0  0  0  0  0  0  0  0  0  0
    9.2662    3.7667    0.0000 H   0  0  0  0  0  0  0  0  0  0  0  0
   12.7441    1.0936    0.0000 H   0  0  0  0  0  0  0  0  0  0  0  0
   12.4299    1.9122    0.0000 H   0  0  0  0  0  0  0  0  0  0  0  0
   11.6113    1.5979    0.0000 H   0  0  0  0  0  0  0  0  0  0  0  0
  1 38  1  0  0  0  0
  2 19  2  0  0  0  0
 21  3  1  1  0  0  0
  3 27  1  0  0  0  0
  4 22  2  0  0  0  0
  5 27  2  0  0  0  0
  6 31  1  0  0  0  0
  6 39  1  0  0  0  0
  7 31  2  0  0  0  0
  8 34  2  0  0  0  0
  9 13  1  0  0  0  0
  9 41  1  0  0  0  0
 10 17  1  0  0  0  0
 10 19  1  0  0  0  0
 10 52  1  0  0  0  0
 18 11  1  1  0  0  0
 11 22  1  0  0  0  0
 11 53  1  0  0  0  0
 23 12  1  1  0  0  0
 12 34  1  0  0  0  0
 12 67  1  0  0  0  0
 13 37  2  0  0  0  0
 14 15  1  0  0  0  0
 14 16  1  1  0  0  0
 14 19  1  0  0  0  0
 14 44  1  0  0  0  0
 15 17  1  0  0  0  0
 15 45  1  0  0  0  0
 15 46  1  0  0  0  0
 16 18  1  0  0  0  0
 16 47  1  0  0  0  0
 16 48  1  0  0  0  0
 17 49  1  0  0  0  0
 17 50  1  0  0  0  0
 18 20  1  0  0  0  0
 18 51  1  0  0  0  0
 20 26  2  3  0  0  0
 20 54  1  0  0  0  0
 21 22  1  0  0  0  0
 21 24  1  0  0  0  0
 21 55  1  0  0  0  0
 23 25  1  0  0  0  0
 23 27  1  0  0  0  0
 23 56  1  0  0  0  0
 24 28  1  0  0  0  0
 24 57  1  0  0  0  0
 24 58  1  0  0  0  0
 25 29  1  0  0  0  0
 25 30  1  0  0  0  0
 25 59  1  0  0  0  0
 26 31  1  0  0  0  0
 26 60  1  0  0  0  0
 28 32  2  0  0  0  0
 28 33  1  0  0  0  0
 29 61  1  0  0  0  0
 29 62  1  0  0  0  0
 29 63  1  0  0  0  0
 30 64  1  0  0  0  0
 30 65  1  0  0  0  0
 30 66  1  0  0  0  0
 32 35  1  0  0  0  0
 32 68  1  0  0  0  0
 33 36  2  0  0  0  0
 33 69  1  0  0  0  0
 34 37  1  0  0  0  0
 35 38  2  0  0  0  0
 35 70  1  0  0  0  0
 36 38  1  0  0  0  0
 36 71  1  0  0  0  0
 37 40  1  0  0  0  0
 39 42  1  0  0  0  0
 39 72  1  0  0  0  0
 39 73  1  0  0  0  0
 40 41  2  0  0  0  0
 40 74  1  0  0  0  0
 41 43  1  0  0  0  0
 42 75  1  0  0  0  0
 42 76  1  0  0  0  0
 42 77  1  0  0  0  0
 43 78  1  0  0  0  0
 43 79  1  0  0  0  0
 43 80  1  0  0  0  0
M  END
> <PUBCHEM_COMPOUND_CID>
492946

> <PUBCHEM_COMPOUND_CANONICALIZED>
1

> <PUBCHEM_CACTVS_COMPLEXITY>
1020

> <PUBCHEM_CACTVS_HBOND_ACCEPTOR>
10

> <PUBCHEM_CACTVS_HBOND_DONOR>
3

> <PUBCHEM_CACTVS_ROTATABLE_BOND>
16

> <PUBCHEM_CACTVS_SUBSKEYS>
AAADcfB7vQAAAAAAAAAAAAAAAAAAAWLAAAAwAAAAAAAAAAABwAAAHwAUAAAADTzhng4yjJLQBACpA6XyWgKCAAAmIgAomKH+bNoKZjqAtbeXMYhm1hmY6ce/yKCOAAAAAAAAAAAAAAAAAAAAAAAAAAAAAA==

> <PUBCHEM_IUPAC_OPENEYE_NAME>
ethyl (4S)-4-[[(2S)-3-(4-fluorophenyl)-2-[(2S)-3-methyl-2-[(5-methylisoxazole-3-carbonyl)amino]butanoyl]oxy-propanoyl]amino]-5-[(3S)-2-oxopyrrolidin-3-yl]pent-2-enoate

> <PUBCHEM_IUPAC_CAS_NAME>
(4S)-4-[[(2S)-3-(4-fluorophenyl)-2-[(2S)-3-methyl-2-[[(5-methyl-3-isoxazolyl)-oxomethyl]amino]-1-oxobutoxy]-1-oxopropyl]amino]-5-[(3S)-2-oxo-3-pyrrolidinyl]-2-pentenoic acid ethyl ester

> <PUBCHEM_IUPAC_NAME_MARKUP>
ethyl (4<I>S</I>)-4-[[(2<I>S</I>)-3-(4-fluorophenyl)-2-[(2<I>S</I>)-3-methyl-2-[(5-methyl-1,2-oxazole-3-carbonyl)amino]butanoyl]oxypropanoyl]amino]-5-[(3<I>S</I>)-2-oxopyrrolidin-3-yl]pent-2-enoate

> <PUBCHEM_IUPAC_NAME>
ethyl (4S)-4-[[(2S)-3-(4-fluorophenyl)-2-[(2S)-3-methyl-2-[(5-methyl-1,2-oxazole-3-carbonyl)amino]butanoyl]oxypropanoyl]amino]-5-[(3S)-2-oxopyrrolidin-3-yl]pent-2-enoate

> <PUBCHEM_IUPAC_SYSTEMATIC_NAME>
ethyl (4S)-4-[[(2S)-3-(4-fluorophenyl)-2-[(2S)-3-methyl-2-[(5-methyl-1,2-oxazol-3-yl)carbonylamino]butanoyl]oxy-propanoyl]amino]-5-[(3S)-2-oxidanylidenepyrrolidin-3-yl]pent-2-enoate

> <PUBCHEM_IUPAC_TRADITIONAL_NAME>
(4S)-4-[[(2S)-3-(4-fluorophenyl)-2-[(2S)-3-methyl-2-[(5-methylisoxazole-3-carbonyl)amino]butanoyl]oxy-propanoyl]amino]-5-[(3S)-2-ketopyrrolidin-3-yl]pent-2-enoic acid ethyl ester

> <PUBCHEM_IUPAC_INCHI>
InChI=1S/C30H37FN4O8/c1-5-41-25(36)11-10-22(16-20-12-13-32-27(20)37)33-29(39)24(15-19-6-8-21(31)9-7-19)42-30(40)26(17(2)3)34-28(38)23-14-18(4)43-35-23/h6-11,14,17,20,22,24,26H,5,12-13,15-16H2,1-4H3,(H,32,37)(H,33,39)(H,34,38)/t20-,22+,24-,26-/m0/s1

> <PUBCHEM_IUPAC_INCHIKEY>
NOGZNKUJYKEFLY-YXOQKGKWSA-N

> <PUBCHEM_XLOGP3_AA>
3.4

> <PUBCHEM_EXACT_MASS>
600.259542

> <PUBCHEM_MOLECULAR_FORMULA>
C30H37FN4O8

> <PUBCHEM_MOLECULAR_WEIGHT>
600.6

> <PUBCHEM_OPENEYE_CAN_SMILES>
CCOC(=O)C=CC(CC1CCNC1=O)NC(=O)C(CC2=CC=C(C=C2)F)OC(=O)C(C(C)C)NC(=O)C3=NOC(=C3)C

> <PUBCHEM_OPENEYE_ISO_SMILES>
CCOC(=O)C=C[C@H](C[C@@H]1CCNC1=O)NC(=O)[C@H](CC2=CC=C(C=C2)F)OC(=O)[C@H](C(C)C)NC(=O)C3=NOC(=C3)C

> <PUBCHEM_CACTVS_TPSA>
166

> <PUBCHEM_MONOISOTOPIC_WEIGHT>
600.259542

> <PUBCHEM_TOTAL_CHARGE>
0

> <PUBCHEM_HEAVY_ATOM_COUNT>
43

> <PUBCHEM_ATOM_DEF_STEREO_COUNT>
4

> <PUBCHEM_ATOM_UDEF_STEREO_COUNT>
0

> <PUBCHEM_BOND_DEF_STEREO_COUNT>
0

> <PUBCHEM_BOND_UDEF_STEREO_COUNT>
1

> <PUBCHEM_ISOTOPIC_ATOM_COUNT>
0

> <PUBCHEM_COMPONENT_COUNT>
1

> <PUBCHEM_CACTVS_TAUTO_COUNT>
-1

> <PUBCHEM_COORDINATE_TYPE>
1
5
255

> <PUBCHEM_BONDANNOTATIONS>
18  11  5
23  12  5
13  37  8
14  16  5
20  26  1
28  32  8
28  33  8
21  3  5
32  35  8
33  36  8
35  38  8
36  38  8
37  40  8
40  41  8
9  13  8
9  41  8

$$$$
492947
  -OEChem-02212016592D

 81 83  0     1  0  0  0  0  0999 V2000
    6.3092   -4.8512    0.0000 F   0  0  0  0  0  0  0  0  0  0  0  0
   12.6269    0.5337    0.0000 O   0  0  0  0  0  0  0  0  0  0  0  0
    8.0413   -1.8512    0.0000 O   0  0  0  0  0  0  0  0  0  0  0  0
    5.4432    0.6488    0.0000 O   0  0  0  0  0  0  0  0  0  0  0  0
   11.5054   -3.8512    0.0000 O   0  0  0  0  0  0  0  0  0  0  0  0
    9.7734   -3.8512    0.0000 O   0  0  0  0  0  0  0  0  0  0  0  0
    6.3092    4.1488    0.0000 O   0  0  0  0  0  0  0  0  0  0  0  0
    3.4945    5.3512    0.0000 O   0  0  0  0  0  0  0  0  0  0  0  0
   13.0881   -1.1876    0.0000 N   0  0  0  0  0  0  0  0  0  0  0  0
    8.9073   -0.3512    0.0000 N   0  0  0  0  0  0  0  0  0  0  0  0
    7.1753    0.6488    0.0000 N   0  0  0  0  0  0  0  0  0  0  0  0
    5.4432    2.6488    0.0000 N   0  0  0  0  0  0  0  0  0  0  0  0
    4.4727    5.1433    0.0000 N   0  0  0  0  0  0  0  0  0  0  0  0
   11.5054   -0.8512    0.0000 C   0  0  2  0  0  0  0  0  0  0  0  0
   10.6394   -0.3512    0.0000 C   0  0  0  0  0  0  0  0  0  0  0  0
   11.6099   -1.8457    0.0000 C   0  0  0  0  0  0  0  0  0  0  0  0
    9.7734   -0.8512    0.0000 C   0  0  1  0  0  0  0  0  0  0  0  0
   12.5881   -2.0537    0.0000 C   0  0  0  0  0  0  0  0  0  0  0  0
   12.4189   -0.4445    0.0000 C   0  0  0  0  0  0  0  0  0  0  0  0
    7.1753   -0.3512    0.0000 C   0  0  2  0  0  0  0  0  0  0  0  0
    9.7734   -1.8512    0.0000 C   0  0  0  0  0  0  0  0  0  0  0  0
    8.0413   -0.8512    0.0000 C   0  0  0  0  0  0  0  0  0  0  0  0
    6.3092    2.1488    0.0000 C   0  0  1  0  0  0  0  0  0  0  0  0
    6.3092   -0.8512    0.0000 C   0  0  0  0  0  0  0  0  0  0  0  0
    7.1753    2.6488    0.0000 C   0  0  0  0  0  0  0  0  0  0  0  0
    6.3092    1.1488    0.0000 C   0  0  0  0  0  0  0  0  0  0  0  0
   10.6394   -2.3512    0.0000 C   0  0  0  0  0  0  0  0  0  0  0  0
    6.3092   -1.8512    0.0000 C   0  0  0  0  0  0  0  0  0  0  0  0
    7.1753    3.6488    0.0000 C   0  0  0  0  0  0  0  0  0  0  0  0
    8.0413    2.1488    0.0000 C   0  0  0  0  0  0  0  0  0  0  0  0
    7.1753   -2.3512    0.0000 C   0  0  0  0  0  0  0  0  0  0  0  0
    5.4432   -2.3512    0.0000 C   0  0  0  0  0  0  0  0  0  0  0  0
   10.6394   -3.3512    0.0000 C   0  0  0  0  0  0  0  0  0  0  0  0
    5.4432    3.6488    0.0000 C   0  0  0  0  0  0  0  0  0  0  0  0
    7.1753   -3.3512    0.0000 C   0  0  0  0  0  0  0  0  0  0  0  0
    5.4432   -3.3512    0.0000 C   0  0  0  0  0  0  0  0  0  0  0  0
    4.5772    4.1488    0.0000 C   0  0  0  0  0  0  0  0  0  0  0  0
    6.3092   -3.8512    0.0000 C   0  0  0  0  0  0  0  0  0  0  0  0
    3.6636    3.7420    0.0000 C   0  0  0  0  0  0  0  0  0  0  0  0
   11.5054   -4.8512    0.0000 C   0  0  0  0  0  0  0  0  0  0  0  0
    2.9945    4.4852    0.0000 C   0  0  0  0  0  0  0  0  0  0  0  0
   12.3714   -5.3512    0.0000 C   0  0  0  0  0  0  0  0  0  0  0  0
    2.0000    4.3807    0.0000 C   0  0  0  0  0  0  0  0  0  0  0  0
   11.5378   -0.2321    0.0000 H   0  0  0  0  0  0  0  0  0  0  0  0
   11.0379    0.1237    0.0000 H   0  0  0  0  0  0  0  0  0  0  0  0
   10.2408    0.1237    0.0000 H   0  0  0  0  0  0  0  0  0  0  0  0
   10.9899   -1.8457    0.0000 H   0  0  0  0  0  0  0  0  0  0  0  0
   11.5451   -2.4623    0.0000 H   0  0  0  0  0  0  0  0  0  0  0  0
    9.7734   -0.2312    0.0000 H   0  0  0  0  0  0  0  0  0  0  0  0
   12.3965   -2.6433    0.0000 H   0  0  0  0  0  0  0  0  0  0  0  0
   13.1545   -2.3058    0.0000 H   0  0  0  0  0  0  0  0  0  0  0  0
   13.7047   -1.1228    0.0000 H   0  0  0  0  0  0  0  0  0  0  0  0
    8.9073    0.2688    0.0000 H   0  0  0  0  0  0  0  0  0  0  0  0
    7.7122   -0.0412    0.0000 H   0  0  0  0  0  0  0  0  0  0  0  0
    9.2364   -2.1612    0.0000 H   0  0  0  0  0  0  0  0  0  0  0  0
    6.3092    2.7688    0.0000 H   0  0  0  0  0  0  0  0  0  0  0  0
    6.0972   -0.2686    0.0000 H   0  0  0  0  0  0  0  0  0  0  0  0
    5.6987   -0.9589    0.0000 H   0  0  0  0  0  0  0  0  0  0  0  0
    7.1753    2.0288    0.0000 H   0  0  0  0  0  0  0  0  0  0  0  0
    7.7122    0.9588    0.0000 H   0  0  0  0  0  0  0  0  0  0  0  0
   11.1763   -2.0412    0.0000 H   0  0  0  0  0  0  0  0  0  0  0  0
    7.7953    3.6488    0.0000 H   0  0  0  0  0  0  0  0  0  0  0  0
    7.1753    4.2688    0.0000 H   0  0  0  0  0  0  0  0  0  0  0  0
    6.5553    3.6488    0.0000 H   0  0  0  0  0  0  0  0  0  0  0  0
    7.7313    1.6118    0.0000 H   0  0  0  0  0  0  0  0  0  0  0  0
    8.5782    1.8388    0.0000 H   0  0  0  0  0  0  0  0  0  0  0  0
    8.3513    2.6857    0.0000 H   0  0  0  0  0  0  0  0  0  0  0  0
    4.9063    2.3388    0.0000 H   0  0  0  0  0  0  0  0  0  0  0  0
    7.7122   -2.0412    0.0000 H   0  0  0  0  0  0  0  0  0  0  0  0
    4.9063   -2.0412    0.0000 H   0  0  0  0  0  0  0  0  0  0  0  0
    7.7122   -3.6612    0.0000 H   0  0  0  0  0  0  0  0  0  0  0  0
    4.9063   -3.6612    0.0000 H   0  0  0  0  0  0  0  0  0  0  0  0
    3.5348    3.1356    0.0000 H   0  0  0  0  0  0  0  0  0  0  0  0
   10.8948   -4.7436    0.0000 H   0  0  0  0  0  0  0  0  0  0  0  0
   11.2933   -5.4338    0.0000 H   0  0  0  0  0  0  0  0  0  0  0  0
   12.0614   -5.8882    0.0000 H   0  0  0  0  0  0  0  0  0  0  0  0
   12.9084   -5.6612    0.0000 H   0  0  0  0  0  0  0  0  0  0  0  0
   12.6814   -4.8143    0.0000 H   0  0  0  0  0  0  0  0  0  0  0  0
    1.9352    4.9973    0.0000 H   0  0  0  0  0  0  0  0  0  0  0  0
    1.3834    4.3159    0.0000 H   0  0  0  0  0  0  0  0  0  0  0  0
    2.0648    3.7641    0.0000 H   0  0  0  0  0  0  0  0  0  0  0  0
  1 38  1  0  0  0  0
  2 19  2  0  0  0  0
  3 22  2  0  0  0  0
  4 26  2  0  0  0  0
  5 33  1  0  0  0  0
  5 40  1  0  0  0  0
  6 33  2  0  0  0  0
  7 34  2  0  0  0  0
  8 13  1  0  0  0  0
  8 41  1  0  0  0  0
  9 18  1  0  0  0  0
  9 19  1  0  0  0  0
  9 52  1  0  0  0  0
 17 10  1  1  0  0  0
 10 22  1  0  0  0  0
 10 53  1  0  0  0  0
 20 11  1  6  0  0  0
 11 26  1  0  0  0  0
 11 60  1  0  0  0  0
 23 12  1  1  0  0  0
 12 34  1  0  0  0  0
 12 68  1  0  0  0  0
 13 37  2  0  0  0  0
 14 15  1  1  0  0  0
 14 16  1  0  0  0  0
 14 19  1  0  0  0  0
 14 44  1  0  0  0  0
 15 17  1  0  0  0  0
 15 45  1  0  0  0  0
 15 46  1  0  0  0  0
 16 18  1  0  0  0  0
 16 47  1  0  0  0  0
 16 48  1  0  0  0  0
 17 21  1  0  0  0  0
 17 49  1  0  0  0  0
 18 50  1  0  0  0  0
 18 51  1  0  0  0  0
 20 22  1  0  0  0  0
 20 24  1  0  0  0  0
 20 54  1  0  0  0  0
 21 27  2  3  0  0  0
 21 55  1  0  0  0  0
 23 25  1  0  0  0  0
 23 26  1  0  0  0  0
 23 56  1  0  0  0  0
 24 28  1  0  0  0  0
 24 57  1  0  0  0  0
 24 58  1  0  0  0  0
 25 29  1  0  0  0  0
 25 30  1  0  0  0  0
 25 59  1  0  0  0  0
 27 33  1  0  0  0  0
 27 61  1  0  0  0  0
 28 31  2  0  0  0  0
 28 32  1  0  0  0  0
 29 62  1  0  0  0  0
 29 63  1  0  0  0  0
 29 64  1  0  0  0  0
 30 65  1  0  0  0  0
 30 66  1  0  0  0  0
 30 67  1  0  0  0  0
 31 35  1  0  0  0  0
 31 69  1  0  0  0  0
 32 36  2  0  0  0  0
 32 70  1  0  0  0  0
 34 37  1  0  0  0  0
 35 38  2  0  0  0  0
 35 71  1  0  0  0  0
 36 38  1  0  0  0  0
 36 72  1  0  0  0  0
 37 39  1  0  0  0  0
 39 41  2  0  0  0  0
 39 73  1  0  0  0  0
 40 42  1  0  0  0  0
 40 74  1  0  0  0  0
 40 75  1  0  0  0  0
 41 43  1  0  0  0  0
 42 76  1  0  0  0  0
 42 77  1  0  0  0  0
 42 78  1  0  0  0  0
 43 79  1  0  0  0  0
 43 80  1  0  0  0  0
 43 81  1  0  0  0  0
M  END
> <PUBCHEM_COMPOUND_CID>
492947

> <PUBCHEM_COMPOUND_CANONICALIZED>
1

> <PUBCHEM_CACTVS_COMPLEXITY>
1020

> <PUBCHEM_CACTVS_HBOND_ACCEPTOR>
9

> <PUBCHEM_CACTVS_HBOND_DONOR>
4

> <PUBCHEM_CACTVS_ROTATABLE_BOND>
15

> <PUBCHEM_CACTVS_SUBSKEYS>
AAADcfB7uQAAAAAAAAAAAAAAAAAAAWLAAAAwAAAAAAAAAAABwAAAHwAUAAAADSzhng4yjJLQBACpA6XyWgCCAAAmIgAomKG+bNoIZjqAtbOWMYhmlhiI6cc/iICOAAAAAAAAAAAAAAAAAAAAAAAAAAAAAA==

> <PUBCHEM_IUPAC_OPENEYE_NAME>
ethyl (4S)-4-[[(2S)-3-(4-fluorophenyl)-2-[[(2S)-3-methyl-2-[(5-methylisoxazole-3-carbonyl)amino]butanoyl]amino]propanoyl]amino]-5-[(3S)-2-oxopyrrolidin-3-yl]pent-2-enoate

> <PUBCHEM_IUPAC_CAS_NAME>
(4S)-4-[[(2S)-3-(4-fluorophenyl)-2-[[(2S)-3-methyl-2-[[(5-methyl-3-isoxazolyl)-oxomethyl]amino]-1-oxobutyl]amino]-1-oxopropyl]amino]-5-[(3S)-2-oxo-3-pyrrolidinyl]-2-pentenoic acid ethyl ester

> <PUBCHEM_IUPAC_NAME_MARKUP>
ethyl (4<I>S</I>)-4-[[(2<I>S</I>)-3-(4-fluorophenyl)-2-[[(2<I>S</I>)-3-methyl-2-[(5-methyl-1,2-oxazole-3-carbonyl)amino]butanoyl]amino]propanoyl]amino]-5-[(3<I>S</I>)-2-oxopyrrolidin-3-yl]pent-2-enoate

> <PUBCHEM_IUPAC_NAME>
ethyl (4S)-4-[[(2S)-3-(4-fluorophenyl)-2-[[(2S)-3-methyl-2-[(5-methyl-1,2-oxazole-3-carbonyl)amino]butanoyl]amino]propanoyl]amino]-5-[(3S)-2-oxopyrrolidin-3-yl]pent-2-enoate

> <PUBCHEM_IUPAC_SYSTEMATIC_NAME>
ethyl (4S)-4-[[(2S)-3-(4-fluorophenyl)-2-[[(2S)-3-methyl-2-[(5-methyl-1,2-oxazol-3-yl)carbonylamino]butanoyl]amino]propanoyl]amino]-5-[(3S)-2-oxidanylidenepyrrolidin-3-yl]pent-2-enoate

> <PUBCHEM_IUPAC_TRADITIONAL_NAME>
(4S)-4-[[(2S)-3-(4-fluorophenyl)-2-[[(2S)-3-methyl-2-[(5-methylisoxazole-3-carbonyl)amino]butanoyl]amino]propanoyl]amino]-5-[(3S)-2-ketopyrrolidin-3-yl]pent-2-enoic acid ethyl ester

> <PUBCHEM_IUPAC_INCHI>
InChI=1S/C30H38FN5O7/c1-5-42-25(37)11-10-22(16-20-12-13-32-27(20)38)33-28(39)23(15-19-6-8-21(31)9-7-19)34-30(41)26(17(2)3)35-29(40)24-14-18(4)43-36-24/h6-11,14,17,20,22-23,26H,5,12-13,15-16H2,1-4H3,(H,32,38)(H,33,39)(H,34,41)(H,35,40)/t20-,22+,23-,26-/m0/s1

> <PUBCHEM_IUPAC_INCHIKEY>
JSJRYDPMCHPLOL-VBZBYZBJSA-N

> <PUBCHEM_XLOGP3_AA>
2.8

> <PUBCHEM_EXACT_MASS>
599.275527

> <PUBCHEM_MOLECULAR_FORMULA>
C30H38FN5O7

> <PUBCHEM_MOLECULAR_WEIGHT>
599.6

> <PUBCHEM_OPENEYE_CAN_SMILES>
CCOC(=O)C=CC(CC1CCNC1=O)NC(=O)C(CC2=CC=C(C=C2)F)NC(=O)C(C(C)C)NC(=O)C3=NOC(=C3)C

> <PUBCHEM_OPENEYE_ISO_SMILES>
CCOC(=O)C=C[C@H](C[C@@H]1CCNC1=O)NC(=O)[C@H](CC2=CC=C(C=C2)F)NC(=O)[C@H](C(C)C)NC(=O)C3=NOC(=C3)C

> <PUBCHEM_CACTVS_TPSA>
169

> <PUBCHEM_MONOISOTOPIC_WEIGHT>
599.275527

> <PUBCHEM_TOTAL_CHARGE>
0

> <PUBCHEM_HEAVY_ATOM_COUNT>
43

> <PUBCHEM_ATOM_DEF_STEREO_COUNT>
4

> <PUBCHEM_ATOM_UDEF_STEREO_COUNT>
0

> <PUBCHEM_BOND_DEF_STEREO_COUNT>
0

> <PUBCHEM_BOND_UDEF_STEREO_COUNT>
1

> <PUBCHEM_ISOTOPIC_ATOM_COUNT>
0

> <PUBCHEM_COMPONENT_COUNT>
1

> <PUBCHEM_CACTVS_TAUTO_COUNT>
-1

> <PUBCHEM_COORDINATE_TYPE>
1
5
255

> <PUBCHEM_BONDANNOTATIONS>
17  10  5
20  11  6
23  12  5
13  37  8
14  15  5
21  27  1
28  31  8
28  32  8
31  35  8
32  36  8
35  38  8
36  38  8
37  39  8
39  41  8
8  13  8
8  41  8

$$$$
497282
  -OEChem-02212016592D

 74 76  0     1  0  0  0  0  0999 V2000
    7.0468   -2.3080    0.0000 O   0  0  0  0  0  0  0  0  0  0  0  0
    4.4487    0.1920    0.0000 O   0  0  0  0  0  0  0  0  0  0  0  0
   11.3769    0.1920    0.0000 O   0  0  0  0  0  0  0  0  0  0  0  0
   10.5109   -4.3080    0.0000 O   0  0  0  0  0  0  0  0  0  0  0  0
    5.3147    3.6920    0.0000 O   0  0  0  0  0  0  0  0  0  0  0  0
    8.7788   -4.3080    0.0000 O   0  0  0  0  0  0  0  0  0  0  0  0
    2.0000    4.0284    0.0000 O   0  0  0  0  0  0  0  0  0  0  0  0
    6.1808    0.1920    0.0000 N   0  0  0  0  0  0  0  0  0  0  0  0
    7.9128   -0.8080    0.0000 N   0  0  0  0  0  0  0  0  0  0  0  0
    4.4487    2.1920    0.0000 N   0  0  0  0  0  0  0  0  0  0  0  0
   12.2429   -1.3080    0.0000 N   0  0  0  0  0  0  0  0  0  0  0  0
    2.6691    3.2853    0.0000 N   0  0  0  0  0  0  0  0  0  0  0  0
    6.1808   -0.8080    0.0000 C   0  0  1  0  0  0  0  0  0  0  0  0
    5.3147   -1.3080    0.0000 C   0  0  0  0  0  0  0  0  0  0  0  0
    8.7788   -1.3080    0.0000 C   0  0  1  0  0  0  0  0  0  0  0  0
    7.0468   -1.3080    0.0000 C   0  0  0  0  0  0  0  0  0  0  0  0
    9.6448   -0.8080    0.0000 C   0  0  0  0  0  0  0  0  0  0  0  0
    5.3147   -2.3080    0.0000 C   0  0  0  0  0  0  0  0  0  0  0  0
    5.3147    0.6920    0.0000 C   0  0  0  0  0  0  0  0  0  0  0  0
    7.0468    0.6920    0.0000 C   0  0  0  0  0  0  0  0  0  0  0  0
    5.3147    1.6920    0.0000 C   0  0  0  0  0  0  0  0  0  0  0  0
   10.5109   -1.3080    0.0000 C   0  0  0  0  0  0  0  0  0  0  0  0
    6.1808    2.1920    0.0000 C   0  0  0  0  0  0  0  0  0  0  0  0
    8.7788   -2.3080    0.0000 C   0  0  0  0  0  0  0  0  0  0  0  0
    7.0468    1.6920    0.0000 C   0  0  0  0  0  0  0  0  0  0  0  0
    4.4487   -2.8080    0.0000 C   0  0  0  0  0  0  0  0  0  0  0  0
    6.1808   -2.8080    0.0000 C   0  0  0  0  0  0  0  0  0  0  0  0
    6.1808    3.1920    0.0000 C   0  0  0  0  0  0  0  0  0  0  0  0
   11.3769   -0.8080    0.0000 C   0  0  0  0  0  0  0  0  0  0  0  0
    4.4487   -3.8080    0.0000 C   0  0  0  0  0  0  0  0  0  0  0  0
    6.1808   -3.8080    0.0000 C   0  0  0  0  0  0  0  0  0  0  0  0
    9.6448   -2.8080    0.0000 C   0  0  0  0  0  0  0  0  0  0  0  0
    5.3147   -4.3080    0.0000 C   0  0  0  0  0  0  0  0  0  0  0  0
    4.4487    3.1920    0.0000 C   0  0  0  0  0  0  0  0  0  0  0  0
    9.6448   -3.8080    0.0000 C   0  0  0  0  0  0  0  0  0  0  0  0
    3.5827    3.6920    0.0000 C   0  0  0  0  0  0  0  0  0  0  0  0
    3.4782    4.6865    0.0000 C   0  0  0  0  0  0  0  0  0  0  0  0
    2.5000    4.8944    0.0000 C   0  0  0  0  0  0  0  0  0  0  0  0
   10.5109   -5.3080    0.0000 C   0  0  0  0  0  0  0  0  0  0  0  0
    2.0933    5.8080    0.0000 C   0  0  0  0  0  0  0  0  0  0  0  0
   11.3769   -5.8080    0.0000 C   0  0  0  0  0  0  0  0  0  0  0  0
    6.7177   -0.4980    0.0000 H   0  0  0  0  0  0  0  0  0  0  0  0
    5.1027   -0.7254    0.0000 H   0  0  0  0  0  0  0  0  0  0  0  0
    4.7042   -1.4156    0.0000 H   0  0  0  0  0  0  0  0  0  0  0  0
    8.2419   -1.6180    0.0000 H   0  0  0  0  0  0  0  0  0  0  0  0
    7.9128   -0.1880    0.0000 H   0  0  0  0  0  0  0  0  0  0  0  0
   10.0434   -0.3330    0.0000 H   0  0  0  0  0  0  0  0  0  0  0  0
    9.2463   -0.3330    0.0000 H   0  0  0  0  0  0  0  0  0  0  0  0
    7.5837    0.3820    0.0000 H   0  0  0  0  0  0  0  0  0  0  0  0
   10.1124   -1.7829    0.0000 H   0  0  0  0  0  0  0  0  0  0  0  0
   10.9094   -1.7829    0.0000 H   0  0  0  0  0  0  0  0  0  0  0  0
    8.2419   -2.6180    0.0000 H   0  0  0  0  0  0  0  0  0  0  0  0
    7.5837    2.0020    0.0000 H   0  0  0  0  0  0  0  0  0  0  0  0
    3.9118   -2.4980    0.0000 H   0  0  0  0  0  0  0  0  0  0  0  0
    6.7177   -2.4980    0.0000 H   0  0  0  0  0  0  0  0  0  0  0  0
    6.8008    3.1920    0.0000 H   0  0  0  0  0  0  0  0  0  0  0  0
    6.1808    3.8120    0.0000 H   0  0  0  0  0  0  0  0  0  0  0  0
    5.5608    3.1920    0.0000 H   0  0  0  0  0  0  0  0  0  0  0  0
    3.9118    1.8820    0.0000 H   0  0  0  0  0  0  0  0  0  0  0  0
    3.9118   -4.1180    0.0000 H   0  0  0  0  0  0  0  0  0  0  0  0
    6.7177   -4.1180    0.0000 H   0  0  0  0  0  0  0  0  0  0  0  0
   10.1818   -2.4980    0.0000 H   0  0  0  0  0  0  0  0  0  0  0  0
    5.3147   -4.9280    0.0000 H   0  0  0  0  0  0  0  0  0  0  0  0
   12.7799   -0.9980    0.0000 H   0  0  0  0  0  0  0  0  0  0  0  0
   12.2429   -1.9280    0.0000 H   0  0  0  0  0  0  0  0  0  0  0  0
    3.9389    5.1014    0.0000 H   0  0  0  0  0  0  0  0  0  0  0  0
    9.9003   -5.2003    0.0000 H   0  0  0  0  0  0  0  0  0  0  0  0
   10.2988   -5.8906    0.0000 H   0  0  0  0  0  0  0  0  0  0  0  0
    2.6597    6.0602    0.0000 H   0  0  0  0  0  0  0  0  0  0  0  0
    1.8411    6.3744    0.0000 H   0  0  0  0  0  0  0  0  0  0  0  0
    1.5269    5.5558    0.0000 H   0  0  0  0  0  0  0  0  0  0  0  0
   11.0669   -6.3449    0.0000 H   0  0  0  0  0  0  0  0  0  0  0  0
   11.9138   -6.1180    0.0000 H   0  0  0  0  0  0  0  0  0  0  0  0
   11.6869   -5.2710    0.0000 H   0  0  0  0  0  0  0  0  0  0  0  0
  1 16  2  0  0  0  0
  2 19  2  0  0  0  0
  3 29  2  0  0  0  0
  4 35  1  0  0  0  0
  4 39  1  0  0  0  0
  5 34  2  0  0  0  0
  6 35  2  0  0  0  0
  7 12  1  0  0  0  0
  7 38  1  0  0  0  0
  8 13  1  0  0  0  0
  8 19  1  0  0  0  0
  8 20  1  0  0  0  0
 15  9  1  1  0  0  0
  9 16  1  0  0  0  0
  9 46  1  0  0  0  0
 10 21  1  0  0  0  0
 10 34  1  0  0  0  0
 10 59  1  0  0  0  0
 11 29  1  0  0  0  0
 11 64  1  0  0  0  0
 11 65  1  0  0  0  0
 12 36  2  0  0  0  0
 13 14  1  0  0  0  0
 13 16  1  6  0  0  0
 13 42  1  0  0  0  0
 14 18  1  0  0  0  0
 14 43  1  0  0  0  0
 14 44  1  0  0  0  0
 15 17  1  0  0  0  0
 15 24  1  0  0  0  0
 15 45  1  0  0  0  0
 17 22  1  0  0  0  0
 17 47  1  0  0  0  0
 17 48  1  0  0  0  0
 18 26  2  0  0  0  0
 18 27  1  0  0  0  0
 19 21  1  0  0  0  0
 20 25  2  0  0  0  0
 20 49  1  0  0  0  0
 21 23  2  0  0  0  0
 22 29  1  0  0  0  0
 22 50  1  0  0  0  0
 22 51  1  0  0  0  0
 23 25  1  0  0  0  0
 23 28  1  0  0  0  0
 24 32  2  3  0  0  0
 24 52  1  0  0  0  0
 25 53  1  0  0  0  0
 26 30  1  0  0  0  0
 26 54  1  0  0  0  0
 27 31  2  0  0  0  0
 27 55  1  0  0  0  0
 28 56  1  0  0  0  0
 28 57  1  0  0  0  0
 28 58  1  0  0  0  0
 30 33  2  0  0  0  0
 30 60  1  0  0  0  0
 31 33  1  0  0  0  0
 31 61  1  0  0  0  0
 32 35  1  0  0  0  0
 32 62  1  0  0  0  0
 33 63  1  0  0  0  0
 34 36  1  0  0  0  0
 36 37  1  0  0  0  0
 37 38  2  0  0  0  0
 37 66  1  0  0  0  0
 38 40  1  0  0  0  0
 39 41  1  0  0  0  0
 39 67  1  0  0  0  0
 39 68  1  0  0  0  0
 40 69  1  0  0  0  0
 40 70  1  0  0  0  0
 40 71  1  0  0  0  0
 41 72  1  0  0  0  0
 41 73  1  0  0  0  0
 41 74  1  0  0  0  0
M  END
> <PUBCHEM_COMPOUND_CID>
497282

> <PUBCHEM_COMPOUND_CANONICALIZED>
1

> <PUBCHEM_CACTVS_COMPLEXITY>
1080

> <PUBCHEM_CACTVS_HBOND_ACCEPTOR>
8

> <PUBCHEM_CACTVS_HBOND_DONOR>
3

> <PUBCHEM_CACTVS_ROTATABLE_BOND>
14

> <PUBCHEM_CACTVS_SUBSKEYS>
AAADcfB7uAAAAAAAAAAAAAAAAAAAAWAAAAAwQAAAAAAAAAABwAAAHgAUAAAADCzhngYyjJPQBACpA6X2WgCCAAAmIgAomKG+bNoIZjqAtbOWMYhmlhiI6cc/iICOAAAAAAAAAAAAAAAAAAAAAAAAAAAAAA==

> <PUBCHEM_IUPAC_OPENEYE_NAME>
ethyl (4S)-7-amino-4-[[(2S)-2-[4-methyl-3-[(5-methylisoxazole-3-carbonyl)amino]-2-oxo-1-pyridyl]-3-phenyl-propanoyl]amino]-7-oxo-hept-2-enoate

> <PUBCHEM_IUPAC_CAS_NAME>
(4S)-7-amino-4-[[(2S)-2-[4-methyl-3-[[(5-methyl-3-isoxazolyl)-oxomethyl]amino]-2-oxo-1-pyridinyl]-1-oxo-3-phenylpropyl]amino]-7-oxo-2-heptenoic acid ethyl ester

> <PUBCHEM_IUPAC_NAME_MARKUP>
ethyl (4<I>S</I>)-7-amino-4-[[(2<I>S</I>)-2-[4-methyl-3-[(5-methyl-1,2-oxazole-3-carbonyl)amino]-2-oxopyridin-1-yl]-3-phenylpropanoyl]amino]-7-oxohept-2-enoate

> <PUBCHEM_IUPAC_NAME>
ethyl (4S)-7-amino-4-[[(2S)-2-[4-methyl-3-[(5-methyl-1,2-oxazole-3-carbonyl)amino]-2-oxopyridin-1-yl]-3-phenylpropanoyl]amino]-7-oxohept-2-enoate

> <PUBCHEM_IUPAC_SYSTEMATIC_NAME>
ethyl (4S)-7-azanyl-4-[[(2S)-2-[4-methyl-3-[(5-methyl-1,2-oxazol-3-yl)carbonylamino]-2-oxidanylidene-pyridin-1-yl]-3-phenyl-propanoyl]amino]-7-oxidanylidene-hept-2-enoate

> <PUBCHEM_IUPAC_TRADITIONAL_NAME>
(4S)-7-amino-7-keto-4-[[(2S)-2-[2-keto-4-methyl-3-[(5-methylisoxazole-3-carbonyl)amino]-1-pyridyl]-3-phenyl-propanoyl]amino]hept-2-enoic acid ethyl ester

> <PUBCHEM_IUPAC_INCHI>
InChI=1S/C29H33N5O7/c1-4-40-25(36)13-11-21(10-12-24(30)35)31-28(38)23(17-20-8-6-5-7-9-20)34-15-14-18(2)26(29(34)39)32-27(37)22-16-19(3)41-33-22/h5-9,11,13-16,21,23H,4,10,12,17H2,1-3H3,(H2,30,35)(H,31,38)(H,32,37)/t21-,23-/m0/s1

> <PUBCHEM_IUPAC_INCHIKEY>
PMLXJMVSESGFEC-GMAHTHKFSA-N

> <PUBCHEM_XLOGP3_AA>
1.6

> <PUBCHEM_EXACT_MASS>
563.237998

> <PUBCHEM_MOLECULAR_FORMULA>
C29H33N5O7

> <PUBCHEM_MOLECULAR_WEIGHT>
563.6

> <PUBCHEM_OPENEYE_CAN_SMILES>
CCOC(=O)C=CC(CCC(=O)N)NC(=O)C(CC1=CC=CC=C1)N2C=CC(=C(C2=O)NC(=O)C3=NOC(=C3)C)C

> <PUBCHEM_OPENEYE_ISO_SMILES>
CCOC(=O)C=C[C@H](CCC(=O)N)NC(=O)[C@H](CC1=CC=CC=C1)N2C=CC(=C(C2=O)NC(=O)C3=NOC(=C3)C)C

> <PUBCHEM_CACTVS_TPSA>
174

> <PUBCHEM_MONOISOTOPIC_WEIGHT>
563.237998

> <PUBCHEM_TOTAL_CHARGE>
0

> <PUBCHEM_HEAVY_ATOM_COUNT>
41

> <PUBCHEM_ATOM_DEF_STEREO_COUNT>
2

> <PUBCHEM_ATOM_UDEF_STEREO_COUNT>
0

> <PUBCHEM_BOND_DEF_STEREO_COUNT>
0

> <PUBCHEM_BOND_UDEF_STEREO_COUNT>
1

> <PUBCHEM_ISOTOPIC_ATOM_COUNT>
0

> <PUBCHEM_COMPONENT_COUNT>
1

> <PUBCHEM_CACTVS_TAUTO_COUNT>
-1

> <PUBCHEM_COORDINATE_TYPE>
1
5
255

> <PUBCHEM_BONDANNOTATIONS>
12  36  8
13  16  6
18  26  8
18  27  8
19  21  8
20  25  8
21  23  8
23  25  8
24  32  1
26  30  8
27  31  8
30  33  8
31  33  8
36  37  8
37  38  8
7  12  8
7  38  8
8  19  8
8  20  8
15  9  5

$$$$
497283
  -OEChem-02212016592D

 75 78  0     1  0  0  0  0  0999 V2000
    5.3147   -5.3080    0.0000 F   0  0  0  0  0  0  0  0  0  0  0  0
   11.6323    0.0769    0.0000 O   0  0  0  0  0  0  0  0  0  0  0  0
    7.0468   -2.3080    0.0000 O   0  0  0  0  0  0  0  0  0  0  0  0
    4.4487    0.1920    0.0000 O   0  0  0  0  0  0  0  0  0  0  0  0
   10.5109   -4.3080    0.0000 O   0  0  0  0  0  0  0  0  0  0  0  0
    8.7788   -4.3080    0.0000 O   0  0  0  0  0  0  0  0  0  0  0  0
    5.3147    3.6920    0.0000 O   0  0  0  0  0  0  0  0  0  0  0  0
    2.0000    4.0284    0.0000 O   0  0  0  0  0  0  0  0  0  0  0  0
   12.0936   -1.6444    0.0000 N   0  0  0  0  0  0  0  0  0  0  0  0
    7.9128   -0.8080    0.0000 N   0  0  0  0  0  0  0  0  0  0  0  0
    6.1808    0.1920    0.0000 N   0  0  0  0  0  0  0  0  0  0  0  0
    4.4487    2.1920    0.0000 N   0  0  0  0  0  0  0  0  0  0  0  0
    2.6691    3.2853    0.0000 N   0  0  0  0  0  0  0  0  0  0  0  0
   10.5109   -1.3080    0.0000 C   0  0  2  0  0  0  0  0  0  0  0  0
    9.6448   -0.8080    0.0000 C   0  0  0  0  0  0  0  0  0  0  0  0
   10.6154   -2.3025    0.0000 C   0  0  0  0  0  0  0  0  0  0  0  0
    8.7788   -1.3080    0.0000 C   0  0  1  0  0  0  0  0  0  0  0  0
   11.5936   -2.5104    0.0000 C   0  0  0  0  0  0  0  0  0  0  0  0
   11.4244   -0.9013    0.0000 C   0  0  0  0  0  0  0  0  0  0  0  0
    6.1808   -0.8080    0.0000 C   0  0  2  0  0  0  0  0  0  0  0  0
    8.7788   -2.3080    0.0000 C   0  0  0  0  0  0  0  0  0  0  0  0
    7.0468   -1.3080    0.0000 C   0  0  0  0  0  0  0  0  0  0  0  0
    5.3147   -1.3080    0.0000 C   0  0  0  0  0  0  0  0  0  0  0  0
    9.6448   -2.8080    0.0000 C   0  0  0  0  0  0  0  0  0  0  0  0
    5.3147   -2.3080    0.0000 C   0  0  0  0  0  0  0  0  0  0  0  0
    5.3147    0.6920    0.0000 C   0  0  0  0  0  0  0  0  0  0  0  0
    7.0468    0.6920    0.0000 C   0  0  0  0  0  0  0  0  0  0  0  0
    5.3147    1.6920    0.0000 C   0  0  0  0  0  0  0  0  0  0  0  0
    6.1808   -2.8080    0.0000 C   0  0  0  0  0  0  0  0  0  0  0  0
    4.4487   -2.8080    0.0000 C   0  0  0  0  0  0  0  0  0  0  0  0
    7.0468    1.6920    0.0000 C   0  0  0  0  0  0  0  0  0  0  0  0
    9.6448   -3.8080    0.0000 C   0  0  0  0  0  0  0  0  0  0  0  0
    6.1808    2.1920    0.0000 C   0  0  0  0  0  0  0  0  0  0  0  0
    6.1808   -3.8080    0.0000 C   0  0  0  0  0  0  0  0  0  0  0  0
    4.4487   -3.8080    0.0000 C   0  0  0  0  0  0  0  0  0  0  0  0
    5.3147   -4.3080    0.0000 C   0  0  0  0  0  0  0  0  0  0  0  0
    4.4487    3.1920    0.0000 C   0  0  0  0  0  0  0  0  0  0  0  0
   10.5109   -5.3080    0.0000 C   0  0  0  0  0  0  0  0  0  0  0  0
    3.5827    3.6920    0.0000 C   0  0  0  0  0  0  0  0  0  0  0  0
   11.3769   -5.8080    0.0000 C   0  0  0  0  0  0  0  0  0  0  0  0
    3.4782    4.6865    0.0000 C   0  0  0  0  0  0  0  0  0  0  0  0
    2.5000    4.8944    0.0000 C   0  0  0  0  0  0  0  0  0  0  0  0
    2.0933    5.8080    0.0000 C   0  0  0  0  0  0  0  0  0  0  0  0
   10.5433   -0.6888    0.0000 H   0  0  0  0  0  0  0  0  0  0  0  0
   10.0434   -0.3330    0.0000 H   0  0  0  0  0  0  0  0  0  0  0  0
    9.2463   -0.3330    0.0000 H   0  0  0  0  0  0  0  0  0  0  0  0
    9.9954   -2.3025    0.0000 H   0  0  0  0  0  0  0  0  0  0  0  0
   10.5506   -2.9191    0.0000 H   0  0  0  0  0  0  0  0  0  0  0  0
    8.2419   -1.6180    0.0000 H   0  0  0  0  0  0  0  0  0  0  0  0
   11.4020   -3.1001    0.0000 H   0  0  0  0  0  0  0  0  0  0  0  0
   12.1600   -2.7626    0.0000 H   0  0  0  0  0  0  0  0  0  0  0  0
   12.7102   -1.5796    0.0000 H   0  0  0  0  0  0  0  0  0  0  0  0
    7.9128   -0.1880    0.0000 H   0  0  0  0  0  0  0  0  0  0  0  0
    6.7177   -0.4980    0.0000 H   0  0  0  0  0  0  0  0  0  0  0  0
    8.2419   -2.6180    0.0000 H   0  0  0  0  0  0  0  0  0  0  0  0
    5.1027   -0.7254    0.0000 H   0  0  0  0  0  0  0  0  0  0  0  0
    4.7042   -1.4156    0.0000 H   0  0  0  0  0  0  0  0  0  0  0  0
   10.1818   -2.4980    0.0000 H   0  0  0  0  0  0  0  0  0  0  0  0
    7.5837    0.3820    0.0000 H   0  0  0  0  0  0  0  0  0  0  0  0
    6.7177   -2.4980    0.0000 H   0  0  0  0  0  0  0  0  0  0  0  0
    3.9118   -2.4980    0.0000 H   0  0  0  0  0  0  0  0  0  0  0  0
    7.5837    2.0020    0.0000 H   0  0  0  0  0  0  0  0  0  0  0  0
    6.1808    2.8120    0.0000 H   0  0  0  0  0  0  0  0  0  0  0  0
    6.7177   -4.1180    0.0000 H   0  0  0  0  0  0  0  0  0  0  0  0
    3.9118   -4.1180    0.0000 H   0  0  0  0  0  0  0  0  0  0  0  0
    3.9118    1.8820    0.0000 H   0  0  0  0  0  0  0  0  0  0  0  0
    9.9003   -5.2003    0.0000 H   0  0  0  0  0  0  0  0  0  0  0  0
   10.2988   -5.8906    0.0000 H   0  0  0  0  0  0  0  0  0  0  0  0
   11.0669   -6.3449    0.0000 H   0  0  0  0  0  0  0  0  0  0  0  0
   11.9138   -6.1180    0.0000 H   0  0  0  0  0  0  0  0  0  0  0  0
   11.6869   -5.2710    0.0000 H   0  0  0  0  0  0  0  0  0  0  0  0
    3.9389    5.1014    0.0000 H   0  0  0  0  0  0  0  0  0  0  0  0
    2.6597    6.0602    0.0000 H   0  0  0  0  0  0  0  0  0  0  0  0
    1.8411    6.3744    0.0000 H   0  0  0  0  0  0  0  0  0  0  0  0
    1.5269    5.5558    0.0000 H   0  0  0  0  0  0  0  0  0  0  0  0
  1 36  1  0  0  0  0
  2 19  2  0  0  0  0
  3 22  2  0  0  0  0
  4 26  2  0  0  0  0
  5 32  1  0  0  0  0
  5 38  1  0  0  0  0
  6 32  2  0  0  0  0
  7 37  2  0  0  0  0
  8 13  1  0  0  0  0
  8 42  1  0  0  0  0
  9 18  1  0  0  0  0
  9 19  1  0  0  0  0
  9 52  1  0  0  0  0
 17 10  1  1  0  0  0
 10 22  1  0  0  0  0
 10 53  1  0  0  0  0
 11 20  1  0  0  0  0
 11 26  1  0  0  0  0
 11 27  1  0  0  0  0
 12 28  1  0  0  0  0
 12 37  1  0  0  0  0
 12 66  1  0  0  0  0
 13 39  2  0  0  0  0
 14 15  1  1  0  0  0
 14 16  1  0  0  0  0
 14 19  1  0  0  0  0
 14 44  1  0  0  0  0
 15 17  1  0  0  0  0
 15 45  1  0  0  0  0
 15 46  1  0  0  0  0
 16 18  1  0  0  0  0
 16 47  1  0  0  0  0
 16 48  1  0  0  0  0
 17 21  1  0  0  0  0
 17 49  1  0  0  0  0
 18 50  1  0  0  0  0
 18 51  1  0  0  0  0
 20 22  1  6  0  0  0
 20 23  1  0  0  0  0
 20 54  1  0  0  0  0
 21 24  2  3  0  0  0
 21 55  1  0  0  0  0
 23 25  1  0  0  0  0
 23 56  1  0  0  0  0
 23 57  1  0  0  0  0
 24 32  1  0  0  0  0
 24 58  1  0  0  0  0
 25 29  2  0  0  0  0
 25 30  1  0  0  0  0
 26 28  1  0  0  0  0
 27 31  2  0  0  0  0
 27 59  1  0  0  0  0
 28 33  2  0  0  0  0
 29 34  1  0  0  0  0
 29 60  1  0  0  0  0
 30 35  2  0  0  0  0
 30 61  1  0  0  0  0
 31 33  1  0  0  0  0
 31 62  1  0  0  0  0
 33 63  1  0  0  0  0
 34 36  2  0  0  0  0
 34 64  1  0  0  0  0
 35 36  1  0  0  0  0
 35 65  1  0  0  0  0
 37 39  1  0  0  0  0
 38 40  1  0  0  0  0
 38 67  1  0  0  0  0
 38 68  1  0  0  0  0
 39 41  1  0  0  0  0
 40 69  1  0  0  0  0
 40 70  1  0  0  0  0
 40 71  1  0  0  0  0
 41 42  2  0  0  0  0
 41 72  1  0  0  0  0
 42 43  1  0  0  0  0
 43 73  1  0  0  0  0
 43 74  1  0  0  0  0
 43 75  1  0  0  0  0
M  END
> <PUBCHEM_COMPOUND_CID>
497283

> <PUBCHEM_COMPOUND_CANONICALIZED>
1

> <PUBCHEM_CACTVS_COMPLEXITY>
1150

> <PUBCHEM_CACTVS_HBOND_ACCEPTOR>
9

> <PUBCHEM_CACTVS_HBOND_DONOR>
3

> <PUBCHEM_CACTVS_ROTATABLE_BOND>
13

> <PUBCHEM_CACTVS_SUBSKEYS>
AAADcfB7uQAAAAAAAAAAAAAAAAAAAWLAAAAwQAAAAAAAAAABwAAAHwAUAAAADSzhng4yjJPQBACpA6X2WgCCAAAmIgAomKG+bNoIZjqAtbOWMYhmlhiI6cc/iICOAAAAAAAAAAAAAAAAAAAAAAAAAAAAAA==

> <PUBCHEM_IUPAC_OPENEYE_NAME>
ethyl (4S)-4-[[(2S)-3-(4-fluorophenyl)-2-[3-[(5-methylisoxazole-3-carbonyl)amino]-2-oxo-1-pyridyl]propanoyl]amino]-5-[(3S)-2-oxopyrrolidin-3-yl]pent-2-enoate

> <PUBCHEM_IUPAC_CAS_NAME>
(4S)-4-[[(2S)-3-(4-fluorophenyl)-2-[3-[[(5-methyl-3-isoxazolyl)-oxomethyl]amino]-2-oxo-1-pyridinyl]-1-oxopropyl]amino]-5-[(3S)-2-oxo-3-pyrrolidinyl]-2-pentenoic acid ethyl ester

> <PUBCHEM_IUPAC_NAME_MARKUP>
ethyl (4<I>S</I>)-4-[[(2<I>S</I>)-3-(4-fluorophenyl)-2-[3-[(5-methyl-1,2-oxazole-3-carbonyl)amino]-2-oxopyridin-1-yl]propanoyl]amino]-5-[(3<I>S</I>)-2-oxopyrrolidin-3-yl]pent-2-enoate

> <PUBCHEM_IUPAC_NAME>
ethyl (4S)-4-[[(2S)-3-(4-fluorophenyl)-2-[3-[(5-methyl-1,2-oxazole-3-carbonyl)amino]-2-oxopyridin-1-yl]propanoyl]amino]-5-[(3S)-2-oxopyrrolidin-3-yl]pent-2-enoate

> <PUBCHEM_IUPAC_SYSTEMATIC_NAME>
ethyl (4S)-4-[[(2S)-3-(4-fluorophenyl)-2-[3-[(5-methyl-1,2-oxazol-3-yl)carbonylamino]-2-oxidanylidene-pyridin-1-yl]propanoyl]amino]-5-[(3S)-2-oxidanylidenepyrrolidin-3-yl]pent-2-enoate

> <PUBCHEM_IUPAC_TRADITIONAL_NAME>
(4S)-4-[[(2S)-3-(4-fluorophenyl)-2-[2-keto-3-[(5-methylisoxazole-3-carbonyl)amino]-1-pyridyl]propanoyl]amino]-5-[(3S)-2-ketopyrrolidin-3-yl]pent-2-enoic acid ethyl ester

> <PUBCHEM_IUPAC_INCHI>
InChI=1S/C30H32FN5O7/c1-3-42-26(37)11-10-22(17-20-12-13-32-27(20)38)33-29(40)25(16-19-6-8-21(31)9-7-19)36-14-4-5-23(30(36)41)34-28(39)24-15-18(2)43-35-24/h4-11,14-15,20,22,25H,3,12-13,16-17H2,1-2H3,(H,32,38)(H,33,40)(H,34,39)/t20-,22+,25-/m0/s1

> <PUBCHEM_IUPAC_INCHIKEY>
DPSADWBPDLMTOY-HOKHCIIBSA-N

> <PUBCHEM_XLOGP3_AA>
2.4

> <PUBCHEM_EXACT_MASS>
593.228577

> <PUBCHEM_MOLECULAR_FORMULA>
C30H32FN5O7

> <PUBCHEM_MOLECULAR_WEIGHT>
593.6

> <PUBCHEM_OPENEYE_CAN_SMILES>
CCOC(=O)C=CC(CC1CCNC1=O)NC(=O)C(CC2=CC=C(C=C2)F)N3C=CC=C(C3=O)NC(=O)C4=NOC(=C4)C

> <PUBCHEM_OPENEYE_ISO_SMILES>
CCOC(=O)C=C[C@H](C[C@@H]1CCNC1=O)NC(=O)[C@H](CC2=CC=C(C=C2)F)N3C=CC=C(C3=O)NC(=O)C4=NOC(=C4)C

> <PUBCHEM_CACTVS_TPSA>
160

> <PUBCHEM_MONOISOTOPIC_WEIGHT>
593.228577

> <PUBCHEM_TOTAL_CHARGE>
0

> <PUBCHEM_HEAVY_ATOM_COUNT>
43

> <PUBCHEM_ATOM_DEF_STEREO_COUNT>
3

> <PUBCHEM_ATOM_UDEF_STEREO_COUNT>
0

> <PUBCHEM_BOND_DEF_STEREO_COUNT>
0

> <PUBCHEM_BOND_UDEF_STEREO_COUNT>
1

> <PUBCHEM_ISOTOPIC_ATOM_COUNT>
0

> <PUBCHEM_COMPONENT_COUNT>
1

> <PUBCHEM_CACTVS_TAUTO_COUNT>
-1

> <PUBCHEM_COORDINATE_TYPE>
1
5
255

> <PUBCHEM_BONDANNOTATIONS>
17  10  5
11  26  8
11  27  8
13  39  8
14  15  5
20  22  6
21  24  1
25  29  8
25  30  8
26  28  8
27  31  8
28  33  8
29  34  8
30  35  8
31  33  8
34  36  8
35  36  8
39  41  8
41  42  8
8  13  8
8  42  8

$$$$
497285
  -OEChem-02212016592D

 78 81  0     1  0  0  0  0  0999 V2000
    3.5827   -4.3080    0.0000 F   0  0  0  0  0  0  0  0  0  0  0  0
    5.3147   -5.3080    0.0000 F   0  0  0  0  0  0  0  0  0  0  0  0
   11.6323    0.0769    0.0000 O   0  0  0  0  0  0  0  0  0  0  0  0
    7.0468   -2.3080    0.0000 O   0  0  0  0  0  0  0  0  0  0  0  0
   10.5109   -4.3080    0.0000 O   0  0  0  0  0  0  0  0  0  0  0  0
    4.4487    0.1920    0.0000 O   0  0  0  0  0  0  0  0  0  0  0  0
    8.7788   -4.3080    0.0000 O   0  0  0  0  0  0  0  0  0  0  0  0
    5.3147    3.6920    0.0000 O   0  0  0  0  0  0  0  0  0  0  0  0
    2.0000    4.0284    0.0000 O   0  0  0  0  0  0  0  0  0  0  0  0
   12.0936   -1.6444    0.0000 N   0  0  0  0  0  0  0  0  0  0  0  0
    7.9128   -0.8080    0.0000 N   0  0  0  0  0  0  0  0  0  0  0  0
    6.1808    0.1920    0.0000 N   0  0  0  0  0  0  0  0  0  0  0  0
    4.4487    2.1920    0.0000 N   0  0  0  0  0  0  0  0  0  0  0  0
    2.6691    3.2853    0.0000 N   0  0  0  0  0  0  0  0  0  0  0  0
   10.5109   -1.3080    0.0000 C   0  0  2  0  0  0  0  0  0  0  0  0
    9.6448   -0.8080    0.0000 C   0  0  0  0  0  0  0  0  0  0  0  0
   10.6154   -2.3025    0.0000 C   0  0  0  0  0  0  0  0  0  0  0  0
    8.7788   -1.3080    0.0000 C   0  0  1  0  0  0  0  0  0  0  0  0
   11.5936   -2.5104    0.0000 C   0  0  0  0  0  0  0  0  0  0  0  0
   11.4244   -0.9013    0.0000 C   0  0  0  0  0  0  0  0  0  0  0  0
    6.1808   -0.8080    0.0000 C   0  0  2  0  0  0  0  0  0  0  0  0
    8.7788   -2.3080    0.0000 C   0  0  0  0  0  0  0  0  0  0  0  0
    7.0468   -1.3080    0.0000 C   0  0  0  0  0  0  0  0  0  0  0  0
    5.3147   -1.3080    0.0000 C   0  0  0  0  0  0  0  0  0  0  0  0
    9.6448   -2.8080    0.0000 C   0  0  0  0  0  0  0  0  0  0  0  0
    5.3147   -2.3080    0.0000 C   0  0  0  0  0  0  0  0  0  0  0  0
    5.3147    0.6920    0.0000 C   0  0  0  0  0  0  0  0  0  0  0  0
    7.0468    0.6920    0.0000 C   0  0  0  0  0  0  0  0  0  0  0  0
    5.3147    1.6920    0.0000 C   0  0  0  0  0  0  0  0  0  0  0  0
    4.4487   -2.8080    0.0000 C   0  0  0  0  0  0  0  0  0  0  0  0
    6.1808   -2.8080    0.0000 C   0  0  0  0  0  0  0  0  0  0  0  0
    9.6448   -3.8080    0.0000 C   0  0  0  0  0  0  0  0  0  0  0  0
    7.0468    1.6920    0.0000 C   0  0  0  0  0  0  0  0  0  0  0  0
    6.1808    2.1920    0.0000 C   0  0  0  0  0  0  0  0  0  0  0  0
    4.4487   -3.8080    0.0000 C   0  0  0  0  0  0  0  0  0  0  0  0
    6.1808   -3.8080    0.0000 C   0  0  0  0  0  0  0  0  0  0  0  0
    5.3147   -4.3080    0.0000 C   0  0  0  0  0  0  0  0  0  0  0  0
   10.5109   -5.3080    0.0000 C   0  0  0  0  0  0  0  0  0  0  0  0
    4.4487    3.1920    0.0000 C   0  0  0  0  0  0  0  0  0  0  0  0
   11.3769   -5.8080    0.0000 C   0  0  0  0  0  0  0  0  0  0  0  0
    9.6448   -5.8080    0.0000 C   0  0  0  0  0  0  0  0  0  0  0  0
    3.5827    3.6920    0.0000 C   0  0  0  0  0  0  0  0  0  0  0  0
    3.4782    4.6865    0.0000 C   0  0  0  0  0  0  0  0  0  0  0  0
    2.5000    4.8944    0.0000 C   0  0  0  0  0  0  0  0  0  0  0  0
    2.0933    5.8080    0.0000 C   0  0  0  0  0  0  0  0  0  0  0  0
   10.5433   -0.6888    0.0000 H   0  0  0  0  0  0  0  0  0  0  0  0
   10.0434   -0.3330    0.0000 H   0  0  0  0  0  0  0  0  0  0  0  0
    9.2463   -0.3330    0.0000 H   0  0  0  0  0  0  0  0  0  0  0  0
    9.9954   -2.3025    0.0000 H   0  0  0  0  0  0  0  0  0  0  0  0
   10.5506   -2.9191    0.0000 H   0  0  0  0  0  0  0  0  0  0  0  0
    8.2419   -1.6180    0.0000 H   0  0  0  0  0  0  0  0  0  0  0  0
   11.4020   -3.1001    0.0000 H   0  0  0  0  0  0  0  0  0  0  0  0
   12.1600   -2.7626    0.0000 H   0  0  0  0  0  0  0  0  0  0  0  0
   12.7102   -1.5796    0.0000 H   0  0  0  0  0  0  0  0  0  0  0  0
    7.9128   -0.1880    0.0000 H   0  0  0  0  0  0  0  0  0  0  0  0
    6.7177   -0.4980    0.0000 H   0  0  0  0  0  0  0  0  0  0  0  0
    8.2419   -2.6180    0.0000 H   0  0  0  0  0  0  0  0  0  0  0  0
    5.1027   -0.7254    0.0000 H   0  0  0  0  0  0  0  0  0  0  0  0
    4.7042   -1.4156    0.0000 H   0  0  0  0  0  0  0  0  0  0  0  0
   10.1818   -2.4980    0.0000 H   0  0  0  0  0  0  0  0  0  0  0  0
    7.5837    0.3820    0.0000 H   0  0  0  0  0  0  0  0  0  0  0  0
    3.9118   -2.4980    0.0000 H   0  0  0  0  0  0  0  0  0  0  0  0
    6.7177   -2.4980    0.0000 H   0  0  0  0  0  0  0  0  0  0  0  0
    7.5837    2.0020    0.0000 H   0  0  0  0  0  0  0  0  0  0  0  0
    6.1808    2.8120    0.0000 H   0  0  0  0  0  0  0  0  0  0  0  0
    6.7177   -4.1180    0.0000 H   0  0  0  0  0  0  0  0  0  0  0  0
    3.9118    1.8820    0.0000 H   0  0  0  0  0  0  0  0  0  0  0  0
   11.0478   -4.9980    0.0000 H   0  0  0  0  0  0  0  0  0  0  0  0
   11.0669   -6.3449    0.0000 H   0  0  0  0  0  0  0  0  0  0  0  0
   11.9138   -6.1180    0.0000 H   0  0  0  0  0  0  0  0  0  0  0  0
   11.6869   -5.2710    0.0000 H   0  0  0  0  0  0  0  0  0  0  0  0
    9.3348   -5.2710    0.0000 H   0  0  0  0  0  0  0  0  0  0  0  0
    9.1079   -6.1180    0.0000 H   0  0  0  0  0  0  0  0  0  0  0  0
    9.9548   -6.3449    0.0000 H   0  0  0  0  0  0  0  0  0  0  0  0
    3.9389    5.1014    0.0000 H   0  0  0  0  0  0  0  0  0  0  0  0
    2.6597    6.0602    0.0000 H   0  0  0  0  0  0  0  0  0  0  0  0
    1.8411    6.3744    0.0000 H   0  0  0  0  0  0  0  0  0  0  0  0
    1.5269    5.5558    0.0000 H   0  0  0  0  0  0  0  0  0  0  0  0
  1 35  1  0  0  0  0
  2 37  1  0  0  0  0
  3 20  2  0  0  0  0
  4 23  2  0  0  0  0
  5 32  1  0  0  0  0
  5 38  1  0  0  0  0
  6 27  2  0  0  0  0
  7 32  2  0  0  0  0
  8 39  2  0  0  0  0
  9 14  1  0  0  0  0
  9 44  1  0  0  0  0
 10 19  1  0  0  0  0
 10 20  1  0  0  0  0
 10 54  1  0  0  0  0
 18 11  1  1  0  0  0
 11 23  1  0  0  0  0
 11 55  1  0  0  0  0
 12 21  1  0  0  0  0
 12 27  1  0  0  0  0
 12 28  1  0  0  0  0
 13 29  1  0  0  0  0
 13 39  1  0  0  0  0
 13 67  1  0  0  0  0
 14 42  2  0  0  0  0
 15 16  1  1  0  0  0
 15 17  1  0  0  0  0
 15 20  1  0  0  0  0
 15 46  1  0  0  0  0
 16 18  1  0  0  0  0
 16 47  1  0  0  0  0
 16 48  1  0  0  0  0
 17 19  1  0  0  0  0
 17 49  1  0  0  0  0
 17 50  1  0  0  0  0
 18 22  1  0  0  0  0
 18 51  1  0  0  0  0
 19 52  1  0  0  0  0
 19 53  1  0  0  0  0
 21 23  1  6  0  0  0
 21 24  1  0  0  0  0
 21 56  1  0  0  0  0
 22 25  2  3  0  0  0
 22 57  1  0  0  0  0
 24 26  1  0  0  0  0
 24 58  1  0  0  0  0
 24 59  1  0  0  0  0
 25 32  1  0  0  0  0
 25 60  1  0  0  0  0
 26 30  2  0  0  0  0
 26 31  1  0  0  0  0
 27 29  1  0  0  0  0
 28 33  2  0  0  0  0
 28 61  1  0  0  0  0
 29 34  2  0  0  0  0
 30 35  1  0  0  0  0
 30 62  1  0  0  0  0
 31 36  2  0  0  0  0
 31 63  1  0  0  0  0
 33 34  1  0  0  0  0
 33 64  1  0  0  0  0
 34 65  1  0  0  0  0
 35 37  2  0  0  0  0
 36 37  1  0  0  0  0
 36 66  1  0  0  0  0
 38 40  1  0  0  0  0
 38 41  1  0  0  0  0
 38 68  1  0  0  0  0
 39 42  1  0  0  0  0
 40 69  1  0  0  0  0
 40 70  1  0  0  0  0
 40 71  1  0  0  0  0
 41 72  1  0  0  0  0
 41 73  1  0  0  0  0
 41 74  1  0  0  0  0
 42 43  1  0  0  0  0
 43 44  2  0  0  0  0
 43 75  1  0  0  0  0
 44 45  1  0  0  0  0
 45 76  1  0  0  0  0
 45 77  1  0  0  0  0
 45 78  1  0  0  0  0
M  END
> <PUBCHEM_COMPOUND_CID>
497285

> <PUBCHEM_COMPOUND_CANONICALIZED>
1

> <PUBCHEM_CACTVS_COMPLEXITY>
1220

> <PUBCHEM_CACTVS_HBOND_ACCEPTOR>
10

> <PUBCHEM_CACTVS_HBOND_DONOR>
3

> <PUBCHEM_CACTVS_ROTATABLE_BOND>
13

> <PUBCHEM_CACTVS_SUBSKEYS>
AAADcfB7uYAAAAAAAAAAAAAAAAAAAWLAAAAwQAAAAAAAAAABwAAAHwAUAAAADTzhng4yjJPQBACpA6X2WgCCAAAmIgAomKG+bNoIZjqAtbOWMYhmlhiI6cc/iICOAAAAAAAAAAAAAAAAAAAAAAAAAAAAAA==

> <PUBCHEM_IUPAC_OPENEYE_NAME>
isopropyl (4S)-4-[[(2S)-3-(3,4-difluorophenyl)-2-[3-[(5-methylisoxazole-3-carbonyl)amino]-2-oxo-1-pyridyl]propanoyl]amino]-5-[(3S)-2-oxopyrrolidin-3-yl]pent-2-enoate

> <PUBCHEM_IUPAC_CAS_NAME>
(4S)-4-[[(2S)-3-(3,4-difluorophenyl)-2-[3-[[(5-methyl-3-isoxazolyl)-oxomethyl]amino]-2-oxo-1-pyridinyl]-1-oxopropyl]amino]-5-[(3S)-2-oxo-3-pyrrolidinyl]-2-pentenoic acid propan-2-yl ester

> <PUBCHEM_IUPAC_NAME_MARKUP>
propan-2-yl (4<I>S</I>)-4-[[(2<I>S</I>)-3-(3,4-difluorophenyl)-2-[3-[(5-methyl-1,2-oxazole-3-carbonyl)amino]-2-oxopyridin-1-yl]propanoyl]amino]-5-[(3<I>S</I>)-2-oxopyrrolidin-3-yl]pent-2-enoate

> <PUBCHEM_IUPAC_NAME>
propan-2-yl (4S)-4-[[(2S)-3-(3,4-difluorophenyl)-2-[3-[(5-methyl-1,2-oxazole-3-carbonyl)amino]-2-oxopyridin-1-yl]propanoyl]amino]-5-[(3S)-2-oxopyrrolidin-3-yl]pent-2-enoate

> <PUBCHEM_IUPAC_SYSTEMATIC_NAME>
propan-2-yl (4S)-4-[[(2S)-3-[3,4-bis(fluoranyl)phenyl]-2-[3-[(5-methyl-1,2-oxazol-3-yl)carbonylamino]-2-oxidanylidene-pyridin-1-yl]propanoyl]amino]-5-[(3S)-2-oxidanylidenepyrrolidin-3-yl]pent-2-enoate

> <PUBCHEM_IUPAC_TRADITIONAL_NAME>
(4S)-4-[[(2S)-3-(3,4-difluorophenyl)-2-[2-keto-3-[(5-methylisoxazole-3-carbonyl)amino]-1-pyridyl]propanoyl]amino]-5-[(3S)-2-ketopyrrolidin-3-yl]pent-2-enoic acid isopropyl ester

> <PUBCHEM_IUPAC_INCHI>
InChI=1S/C31H33F2N5O7/c1-17(2)44-27(39)9-7-21(16-20-10-11-34-28(20)40)35-30(42)26(15-19-6-8-22(32)23(33)14-19)38-12-4-5-24(31(38)43)36-29(41)25-13-18(3)45-37-25/h4-9,12-14,17,20-21,26H,10-11,15-16H2,1-3H3,(H,34,40)(H,35,42)(H,36,41)/t20-,21+,26-/m0/s1

> <PUBCHEM_IUPAC_INCHIKEY>
IDEQIHVMYCERBI-UZINWLIJSA-N

> <PUBCHEM_XLOGP3_AA>
2.9

> <PUBCHEM_EXACT_MASS>
625.234805

> <PUBCHEM_MOLECULAR_FORMULA>
C31H33F2N5O7

> <PUBCHEM_MOLECULAR_WEIGHT>
625.6

> <PUBCHEM_OPENEYE_CAN_SMILES>
CC1=CC(=NO1)C(=O)NC2=CC=CN(C2=O)C(CC3=CC(=C(C=C3)F)F)C(=O)NC(CC4CCNC4=O)C=CC(=O)OC(C)C

> <PUBCHEM_OPENEYE_ISO_SMILES>
CC1=CC(=NO1)C(=O)NC2=CC=CN(C2=O)[C@@H](CC3=CC(=C(C=C3)F)F)C(=O)N[C@@H](C[C@@H]4CCNC4=O)C=CC(=O)OC(C)C

> <PUBCHEM_CACTVS_TPSA>
160

> <PUBCHEM_MONOISOTOPIC_WEIGHT>
625.234805

> <PUBCHEM_TOTAL_CHARGE>
0

> <PUBCHEM_HEAVY_ATOM_COUNT>
45

> <PUBCHEM_ATOM_DEF_STEREO_COUNT>
3

> <PUBCHEM_ATOM_UDEF_STEREO_COUNT>
0

> <PUBCHEM_BOND_DEF_STEREO_COUNT>
0

> <PUBCHEM_BOND_UDEF_STEREO_COUNT>
1

> <PUBCHEM_ISOTOPIC_ATOM_COUNT>
0

> <PUBCHEM_COMPONENT_COUNT>
1

> <PUBCHEM_CACTVS_TAUTO_COUNT>
-1

> <PUBCHEM_COORDINATE_TYPE>
1
5
255

> <PUBCHEM_BONDANNOTATIONS>
18  11  5
12  27  8
12  28  8
14  42  8
15  16  5
21  23  6
22  25  1
26  30  8
26  31  8
27  29  8
28  33  8
29  34  8
30  35  8
31  36  8
33  34  8
35  37  8
36  37  8
42  43  8
43  44  8
9  14  8
9  44  8

$$$$
501966
  -OEChem-02212016592D

 84 86  0     1  0  0  0  0  0999 V2000
    6.3092   -4.8512    0.0000 F   0  0  0  0  0  0  0  0  0  0  0  0
   12.6269    0.5337    0.0000 O   0  0  0  0  0  0  0  0  0  0  0  0
    5.4432    0.6488    0.0000 O   0  0  0  0  0  0  0  0  0  0  0  0
    8.0413   -1.8512    0.0000 O   0  0  0  0  0  0  0  0  0  0  0  0
    6.3092    4.1488    0.0000 O   0  0  0  0  0  0  0  0  0  0  0  0
   11.5054   -3.8512    0.0000 O   0  0  0  0  0  0  0  0  0  0  0  0
    3.4945    5.3512    0.0000 O   0  0  0  0  0  0  0  0  0  0  0  0
    9.7734   -3.8512    0.0000 O   0  0  0  0  0  0  0  0  0  0  0  0
   13.0881   -1.1876    0.0000 N   0  0  0  0  0  0  0  0  0  0  0  0
    8.9073   -0.3512    0.0000 N   0  0  0  0  0  0  0  0  0  0  0  0
    7.1753    0.6488    0.0000 N   0  0  0  0  0  0  0  0  0  0  0  0
    5.4432    2.6488    0.0000 N   0  0  0  0  0  0  0  0  0  0  0  0
    4.4727    5.1433    0.0000 N   0  0  0  0  0  0  0  0  0  0  0  0
   11.5054   -0.8512    0.0000 C   0  0  2  0  0  0  0  0  0  0  0  0
   10.6394   -0.3512    0.0000 C   0  0  0  0  0  0  0  0  0  0  0  0
   11.6099   -1.8457    0.0000 C   0  0  0  0  0  0  0  0  0  0  0  0
    7.1753    2.6488    0.0000 C   0  0  0  0  0  0  0  0  0  0  0  0
    9.7734   -0.8512    0.0000 C   0  0  1  0  0  0  0  0  0  0  0  0
    6.3092    2.1488    0.0000 C   0  0  1  0  0  0  0  0  0  0  0  0
   12.5881   -2.0537    0.0000 C   0  0  0  0  0  0  0  0  0  0  0  0
   12.4189   -0.4445    0.0000 C   0  0  0  0  0  0  0  0  0  0  0  0
    7.1753   -0.3512    0.0000 C   0  0  2  0  0  0  0  0  0  0  0  0
    8.0413    3.1488    0.0000 C   0  0  0  0  0  0  0  0  0  0  0  0
    6.6753    3.5148    0.0000 C   0  0  0  0  0  0  0  0  0  0  0  0
    7.6753    1.7828    0.0000 C   0  0  0  0  0  0  0  0  0  0  0  0
    6.3092    1.1488    0.0000 C   0  0  0  0  0  0  0  0  0  0  0  0
    8.0413   -0.8512    0.0000 C   0  0  0  0  0  0  0  0  0  0  0  0
    9.7734   -1.8512    0.0000 C   0  0  0  0  0  0  0  0  0  0  0  0
    6.3092   -0.8512    0.0000 C   0  0  0  0  0  0  0  0  0  0  0  0
    6.3092   -1.8512    0.0000 C   0  0  0  0  0  0  0  0  0  0  0  0
    5.4432    3.6488    0.0000 C   0  0  0  0  0  0  0  0  0  0  0  0
   10.6394   -2.3512    0.0000 C   0  0  0  0  0  0  0  0  0  0  0  0
    7.1753   -2.3512    0.0000 C   0  0  0  0  0  0  0  0  0  0  0  0
    5.4432   -2.3512    0.0000 C   0  0  0  0  0  0  0  0  0  0  0  0
    4.5772    4.1488    0.0000 C   0  0  0  0  0  0  0  0  0  0  0  0
   10.6394   -3.3512    0.0000 C   0  0  0  0  0  0  0  0  0  0  0  0
    7.1753   -3.3512    0.0000 C   0  0  0  0  0  0  0  0  0  0  0  0
    5.4432   -3.3512    0.0000 C   0  0  0  0  0  0  0  0  0  0  0  0
    3.6636    3.7420    0.0000 C   0  0  0  0  0  0  0  0  0  0  0  0
    6.3092   -3.8512    0.0000 C   0  0  0  0  0  0  0  0  0  0  0  0
    2.9945    4.4852    0.0000 C   0  0  0  0  0  0  0  0  0  0  0  0
   11.5054   -4.8512    0.0000 C   0  0  0  0  0  0  0  0  0  0  0  0
    2.0000    4.3807    0.0000 C   0  0  0  0  0  0  0  0  0  0  0  0
   12.3714   -5.3512    0.0000 C   0  0  0  0  0  0  0  0  0  0  0  0
   11.5378   -0.2321    0.0000 H   0  0  0  0  0  0  0  0  0  0  0  0
   11.0379    0.1237    0.0000 H   0  0  0  0  0  0  0  0  0  0  0  0
   10.2408    0.1237    0.0000 H   0  0  0  0  0  0  0  0  0  0  0  0
   10.9899   -1.8457    0.0000 H   0  0  0  0  0  0  0  0  0  0  0  0
   11.5451   -2.4623    0.0000 H   0  0  0  0  0  0  0  0  0  0  0  0
    9.7734   -0.2312    0.0000 H   0  0  0  0  0  0  0  0  0  0  0  0
    6.3092    2.7688    0.0000 H   0  0  0  0  0  0  0  0  0  0  0  0
   12.3965   -2.6433    0.0000 H   0  0  0  0  0  0  0  0  0  0  0  0
   13.1545   -2.3058    0.0000 H   0  0  0  0  0  0  0  0  0  0  0  0
   13.7047   -1.1228    0.0000 H   0  0  0  0  0  0  0  0  0  0  0  0
    7.7122   -0.0412    0.0000 H   0  0  0  0  0  0  0  0  0  0  0  0
    8.9073    0.2688    0.0000 H   0  0  0  0  0  0  0  0  0  0  0  0
    8.3513    2.6118    0.0000 H   0  0  0  0  0  0  0  0  0  0  0  0
    8.5782    3.4588    0.0000 H   0  0  0  0  0  0  0  0  0  0  0  0
    7.7313    3.6857    0.0000 H   0  0  0  0  0  0  0  0  0  0  0  0
    7.2122    3.8248    0.0000 H   0  0  0  0  0  0  0  0  0  0  0  0
    6.3653    4.0517    0.0000 H   0  0  0  0  0  0  0  0  0  0  0  0
    6.1383    3.2048    0.0000 H   0  0  0  0  0  0  0  0  0  0  0  0
    7.1383    1.4728    0.0000 H   0  0  0  0  0  0  0  0  0  0  0  0
    7.9853    1.2458    0.0000 H   0  0  0  0  0  0  0  0  0  0  0  0
    8.2122    2.0928    0.0000 H   0  0  0  0  0  0  0  0  0  0  0  0
    7.7122    0.9588    0.0000 H   0  0  0  0  0  0  0  0  0  0  0  0
    9.2364   -2.1612    0.0000 H   0  0  0  0  0  0  0  0  0  0  0  0
    4.9063    2.3388    0.0000 H   0  0  0  0  0  0  0  0  0  0  0  0
    6.0972   -0.2686    0.0000 H   0  0  0  0  0  0  0  0  0  0  0  0
    5.6987   -0.9589    0.0000 H   0  0  0  0  0  0  0  0  0  0  0  0
   11.1763   -2.0412    0.0000 H   0  0  0  0  0  0  0  0  0  0  0  0
    7.7122   -2.0412    0.0000 H   0  0  0  0  0  0  0  0  0  0  0  0
    4.9063   -2.0412    0.0000 H   0  0  0  0  0  0  0  0  0  0  0  0
    7.7122   -3.6612    0.0000 H   0  0  0  0  0  0  0  0  0  0  0  0
    4.9063   -3.6612    0.0000 H   0  0  0  0  0  0  0  0  0  0  0  0
    3.5348    3.1356    0.0000 H   0  0  0  0  0  0  0  0  0  0  0  0
   10.8948   -4.7436    0.0000 H   0  0  0  0  0  0  0  0  0  0  0  0
   11.2933   -5.4338    0.0000 H   0  0  0  0  0  0  0  0  0  0  0  0
    1.9352    4.9973    0.0000 H   0  0  0  0  0  0  0  0  0  0  0  0
    1.3834    4.3159    0.0000 H   0  0  0  0  0  0  0  0  0  0  0  0
    2.0648    3.7641    0.0000 H   0  0  0  0  0  0  0  0  0  0  0  0
   12.0614   -5.8882    0.0000 H   0  0  0  0  0  0  0  0  0  0  0  0
   12.9084   -5.6612    0.0000 H   0  0  0  0  0  0  0  0  0  0  0  0
   12.6814   -4.8143    0.0000 H   0  0  0  0  0  0  0  0  0  0  0  0
  1 40  1  0  0  0  0
  2 21  2  0  0  0  0
  3 26  2  0  0  0  0
  4 27  2  0  0  0  0
  5 31  2  0  0  0  0
  6 36  1  0  0  0  0
  6 42  1  0  0  0  0
  7 13  1  0  0  0  0
  7 41  1  0  0  0  0
  8 36  2  0  0  0  0
  9 20  1  0  0  0  0
  9 21  1  0  0  0  0
  9 54  1  0  0  0  0
 18 10  1  1  0  0  0
 10 27  1  0  0  0  0
 10 56  1  0  0  0  0
 22 11  1  6  0  0  0
 11 26  1  0  0  0  0
 11 66  1  0  0  0  0
 19 12  1  1  0  0  0
 12 31  1  0  0  0  0
 12 68  1  0  0  0  0
 13 35  2  0  0  0  0
 14 15  1  1  0  0  0
 14 16  1  0  0  0  0
 14 21  1  0  0  0  0
 14 45  1  0  0  0  0
 15 18  1  0  0  0  0
 15 46  1  0  0  0  0
 15 47  1  0  0  0  0
 16 20  1  0  0  0  0
 16 48  1  0  0  0  0
 16 49  1  0  0  0  0
 17 19  1  0  0  0  0
 17 23  1  0  0  0  0
 17 24  1  0  0  0  0
 17 25  1  0  0  0  0
 18 28  1  0  0  0  0
 18 50  1  0  0  0  0
 19 26  1  0  0  0  0
 19 51  1  0  0  0  0
 20 52  1  0  0  0  0
 20 53  1  0  0  0  0
 22 27  1  0  0  0  0
 22 29  1  0  0  0  0
 22 55  1  0  0  0  0
 23 57  1  0  0  0  0
 23 58  1  0  0  0  0
 23 59  1  0  0  0  0
 24 60  1  0  0  0  0
 24 61  1  0  0  0  0
 24 62  1  0  0  0  0
 25 63  1  0  0  0  0
 25 64  1  0  0  0  0
 25 65  1  0  0  0  0
 28 32  2  3  0  0  0
 28 67  1  0  0  0  0
 29 30  1  0  0  0  0
 29 69  1  0  0  0  0
 29 70  1  0  0  0  0
 30 33  2  0  0  0  0
 30 34  1  0  0  0  0
 31 35  1  0  0  0  0
 32 36  1  0  0  0  0
 32 71  1  0  0  0  0
 33 37  1  0  0  0  0
 33 72  1  0  0  0  0
 34 38  2  0  0  0  0
 34 73  1  0  0  0  0
 35 39  1  0  0  0  0
 37 40  2  0  0  0  0
 37 74  1  0  0  0  0
 38 40  1  0  0  0  0
 38 75  1  0  0  0  0
 39 41  2  0  0  0  0
 39 76  1  0  0  0  0
 41 43  1  0  0  0  0
 42 44  1  0  0  0  0
 42 77  1  0  0  0  0
 42 78  1  0  0  0  0
 43 79  1  0  0  0  0
 43 80  1  0  0  0  0
 43 81  1  0  0  0  0
 44 82  1  0  0  0  0
 44 83  1  0  0  0  0
 44 84  1  0  0  0  0
M  END
> <PUBCHEM_COMPOUND_CID>
501966

> <PUBCHEM_COMPOUND_CANONICALIZED>
1

> <PUBCHEM_CACTVS_COMPLEXITY>
1060

> <PUBCHEM_CACTVS_HBOND_ACCEPTOR>
9

> <PUBCHEM_CACTVS_HBOND_DONOR>
4

> <PUBCHEM_CACTVS_ROTATABLE_BOND>
15

> <PUBCHEM_CACTVS_SUBSKEYS>
AAADcfB7uQAAAAAAAAAAAAAAAAAAAWLAAAAwAAAAAAAAAAABwAAAHwAUAAAADyzhng4yjJLQBACpA6XyWgCCAAAmIgAomKG+bNoIZjqAtbOWMYhmlhiI6cc/iICPAAAAAAAAAAAAAAAAAAAAAAAAAAAAAA==

> <PUBCHEM_IUPAC_OPENEYE_NAME>
ethyl (4S)-4-[[(2S)-2-[[(2S)-3,3-dimethyl-2-[(5-methylisoxazole-3-carbonyl)amino]butanoyl]amino]-3-(4-fluorophenyl)propanoyl]amino]-5-[(3S)-2-oxopyrrolidin-3-yl]pent-2-enoate

> <PUBCHEM_IUPAC_CAS_NAME>
(4S)-4-[[(2S)-2-[[(2S)-3,3-dimethyl-2-[[(5-methyl-3-isoxazolyl)-oxomethyl]amino]-1-oxobutyl]amino]-3-(4-fluorophenyl)-1-oxopropyl]amino]-5-[(3S)-2-oxo-3-pyrrolidinyl]-2-pentenoic acid ethyl ester

> <PUBCHEM_IUPAC_NAME_MARKUP>
ethyl (4<I>S</I>)-4-[[(2<I>S</I>)-2-[[(2<I>S</I>)-3,3-dimethyl-2-[(5-methyl-1,2-oxazole-3-carbonyl)amino]butanoyl]amino]-3-(4-fluorophenyl)propanoyl]amino]-5-[(3<I>S</I>)-2-oxopyrrolidin-3-yl]pent-2-enoate

> <PUBCHEM_IUPAC_NAME>
ethyl (4S)-4-[[(2S)-2-[[(2S)-3,3-dimethyl-2-[(5-methyl-1,2-oxazole-3-carbonyl)amino]butanoyl]amino]-3-(4-fluorophenyl)propanoyl]amino]-5-[(3S)-2-oxopyrrolidin-3-yl]pent-2-enoate

> <PUBCHEM_IUPAC_SYSTEMATIC_NAME>
ethyl (4S)-4-[[(2S)-2-[[(2S)-3,3-dimethyl-2-[(5-methyl-1,2-oxazol-3-yl)carbonylamino]butanoyl]amino]-3-(4-fluorophenyl)propanoyl]amino]-5-[(3S)-2-oxidanylidenepyrrolidin-3-yl]pent-2-enoate

> <PUBCHEM_IUPAC_TRADITIONAL_NAME>
(4S)-4-[[(2S)-2-[[(2S)-3,3-dimethyl-2-[(5-methylisoxazole-3-carbonyl)amino]butanoyl]amino]-3-(4-fluorophenyl)propanoyl]amino]-5-[(3S)-2-ketopyrrolidin-3-yl]pent-2-enoic acid ethyl ester

> <PUBCHEM_IUPAC_INCHI>
InChI=1S/C31H40FN5O7/c1-6-43-25(38)12-11-22(17-20-13-14-33-27(20)39)34-28(40)23(16-19-7-9-21(32)10-8-19)35-30(42)26(31(3,4)5)36-29(41)24-15-18(2)44-37-24/h7-12,15,20,22-23,26H,6,13-14,16-17H2,1-5H3,(H,33,39)(H,34,40)(H,35,42)(H,36,41)/t20-,22+,23-,26+/m0/s1

> <PUBCHEM_IUPAC_INCHIKEY>
JBRKSGSKGATCEA-TYDNGALESA-N

> <PUBCHEM_XLOGP3_AA>
3.2

> <PUBCHEM_EXACT_MASS>
613.291177

> <PUBCHEM_MOLECULAR_FORMULA>
C31H40FN5O7

> <PUBCHEM_MOLECULAR_WEIGHT>
613.7

> <PUBCHEM_OPENEYE_CAN_SMILES>
CCOC(=O)C=CC(CC1CCNC1=O)NC(=O)C(CC2=CC=C(C=C2)F)NC(=O)C(C(C)(C)C)NC(=O)C3=NOC(=C3)C

> <PUBCHEM_OPENEYE_ISO_SMILES>
CCOC(=O)C=C[C@H](C[C@@H]1CCNC1=O)NC(=O)[C@H](CC2=CC=C(C=C2)F)NC(=O)[C@H](C(C)(C)C)NC(=O)C3=NOC(=C3)C

> <PUBCHEM_CACTVS_TPSA>
169

> <PUBCHEM_MONOISOTOPIC_WEIGHT>
613.291177

> <PUBCHEM_TOTAL_CHARGE>
0

> <PUBCHEM_HEAVY_ATOM_COUNT>
44

> <PUBCHEM_ATOM_DEF_STEREO_COUNT>
4

> <PUBCHEM_ATOM_UDEF_STEREO_COUNT>
0

> <PUBCHEM_BOND_DEF_STEREO_COUNT>
0

> <PUBCHEM_BOND_UDEF_STEREO_COUNT>
1

> <PUBCHEM_ISOTOPIC_ATOM_COUNT>
0

> <PUBCHEM_COMPONENT_COUNT>
1

> <PUBCHEM_CACTVS_TAUTO_COUNT>
-1

> <PUBCHEM_COORDINATE_TYPE>
1
5
255

> <PUBCHEM_BONDANNOTATIONS>
18  10  5
22  11  6
19  12  5
13  35  8
14  15  5
28  32  1
30  33  8
30  34  8
33  37  8
34  38  8
35  39  8
37  40  8
38  40  8
39  41  8
7  13  8
7  41  8

$$$$
508228
  -OEChem-02212016592D

 75 78  0     1  0  0  0  0  0999 V2000
    8.1402   -5.8372    0.0000 O   0  0  0  0  0  0  0  0  0  0  0  0
    7.9128   -0.6736    0.0000 O   0  0  0  0  0  0  0  0  0  0  0  0
    4.4487    0.3264    0.0000 O   0  0  0  0  0  0  0  0  0  0  0  0
   10.5109   -1.1736    0.0000 O   0  0  0  0  0  0  0  0  0  0  0  0
   11.3769   -2.6736    0.0000 O   0  0  0  0  0  0  0  0  0  0  0  0
    5.3147    3.8264    0.0000 O   0  0  0  0  0  0  0  0  0  0  0  0
    2.0000    4.1628    0.0000 O   0  0  0  0  0  0  0  0  0  0  0  0
    9.8615   -5.3760    0.0000 N   0  0  0  0  0  0  0  0  0  0  0  0
    7.0468   -2.1736    0.0000 N   0  0  0  0  0  0  0  0  0  0  0  0
    6.1808    0.3264    0.0000 N   0  0  0  0  0  0  0  0  0  0  0  0
    4.4487    2.3264    0.0000 N   0  0  0  0  0  0  0  0  0  0  0  0
    2.6691    3.4197    0.0000 N   0  0  0  0  0  0  0  0  0  0  0  0
    8.7788   -4.1736    0.0000 C   0  0  2  0  0  0  0  0  0  0  0  0
    7.9128   -3.6736    0.0000 C   0  0  0  0  0  0  0  0  0  0  0  0
    9.6924   -3.7668    0.0000 C   0  0  0  0  0  0  0  0  0  0  0  0
    7.9128   -2.6736    0.0000 C   0  0  1  0  0  0  0  0  0  0  0  0
   10.3615   -4.5100    0.0000 C   0  0  0  0  0  0  0  0  0  0  0  0
    8.8834   -5.1681    0.0000 C   0  0  0  0  0  0  0  0  0  0  0  0
    8.7788   -2.1736    0.0000 C   0  0  0  0  0  0  0  0  0  0  0  0
    6.1808   -0.6736    0.0000 C   0  0  2  0  0  0  0  0  0  0  0  0
    7.0468   -1.1736    0.0000 C   0  0  0  0  0  0  0  0  0  0  0  0
    5.3147   -1.1736    0.0000 C   0  0  0  0  0  0  0  0  0  0  0  0
    9.6448   -2.6736    0.0000 C   0  0  0  0  0  0  0  0  0  0  0  0
    5.3147   -2.1736    0.0000 C   0  0  0  0  0  0  0  0  0  0  0  0
    5.3147    0.8264    0.0000 C   0  0  0  0  0  0  0  0  0  0  0  0
    7.0468    0.8264    0.0000 C   0  0  0  0  0  0  0  0  0  0  0  0
    5.3147    1.8264    0.0000 C   0  0  0  0  0  0  0  0  0  0  0  0
   10.5109   -2.1736    0.0000 C   0  0  0  0  0  0  0  0  0  0  0  0
    7.0468    1.8264    0.0000 C   0  0  0  0  0  0  0  0  0  0  0  0
    6.1808    2.3264    0.0000 C   0  0  0  0  0  0  0  0  0  0  0  0
   11.3769   -0.6736    0.0000 C   0  0  0  0  0  0  0  0  0  0  0  0
    4.4487    3.3264    0.0000 C   0  0  0  0  0  0  0  0  0  0  0  0
   11.3769    0.3264    0.0000 C   0  0  0  0  0  0  0  0  0  0  0  0
    3.5827    3.8264    0.0000 C   0  0  0  0  0  0  0  0  0  0  0  0
    3.4782    4.8210    0.0000 C   0  0  0  0  0  0  0  0  0  0  0  0
   12.2429    0.8264    0.0000 C   0  0  0  0  0  0  0  0  0  0  0  0
   10.5109    0.8264    0.0000 C   0  0  0  0  0  0  0  0  0  0  0  0
    2.5000    5.0289    0.0000 C   0  0  0  0  0  0  0  0  0  0  0  0
   12.2429    1.8264    0.0000 C   0  0  0  0  0  0  0  0  0  0  0  0
   10.5109    1.8264    0.0000 C   0  0  0  0  0  0  0  0  0  0  0  0
   11.3769    2.3264    0.0000 C   0  0  0  0  0  0  0  0  0  0  0  0
    2.0933    5.9424    0.0000 C   0  0  0  0  0  0  0  0  0  0  0  0
    8.8113   -3.5544    0.0000 H   0  0  0  0  0  0  0  0  0  0  0  0
    7.3022   -3.5659    0.0000 H   0  0  0  0  0  0  0  0  0  0  0  0
    7.7008   -4.2562    0.0000 H   0  0  0  0  0  0  0  0  0  0  0  0
   10.1940   -3.4024    0.0000 H   0  0  0  0  0  0  0  0  0  0  0  0
    9.3824   -3.2299    0.0000 H   0  0  0  0  0  0  0  0  0  0  0  0
    7.9128   -2.0536    0.0000 H   0  0  0  0  0  0  0  0  0  0  0  0
   10.8631   -4.8744    0.0000 H   0  0  0  0  0  0  0  0  0  0  0  0
   10.7764   -4.0492    0.0000 H   0  0  0  0  0  0  0  0  0  0  0  0
   10.1137   -5.9424    0.0000 H   0  0  0  0  0  0  0  0  0  0  0  0
    6.5098   -2.4836    0.0000 H   0  0  0  0  0  0  0  0  0  0  0  0
    8.7788   -1.5536    0.0000 H   0  0  0  0  0  0  0  0  0  0  0  0
    6.1808   -1.2936    0.0000 H   0  0  0  0  0  0  0  0  0  0  0  0
    5.1027   -0.5910    0.0000 H   0  0  0  0  0  0  0  0  0  0  0  0
    4.7042   -1.2812    0.0000 H   0  0  0  0  0  0  0  0  0  0  0  0
    9.6448   -3.2936    0.0000 H   0  0  0  0  0  0  0  0  0  0  0  0
    4.6947   -2.1736    0.0000 H   0  0  0  0  0  0  0  0  0  0  0  0
    5.3147   -2.7936    0.0000 H   0  0  0  0  0  0  0  0  0  0  0  0
    5.9347   -2.1736    0.0000 H   0  0  0  0  0  0  0  0  0  0  0  0
    7.5837    0.5164    0.0000 H   0  0  0  0  0  0  0  0  0  0  0  0
    7.5837    2.1364    0.0000 H   0  0  0  0  0  0  0  0  0  0  0  0
    6.1808    2.9464    0.0000 H   0  0  0  0  0  0  0  0  0  0  0  0
    3.9118    2.0164    0.0000 H   0  0  0  0  0  0  0  0  0  0  0  0
   11.5890   -1.2562    0.0000 H   0  0  0  0  0  0  0  0  0  0  0  0
   11.9875   -0.5659    0.0000 H   0  0  0  0  0  0  0  0  0  0  0  0
    3.9389    5.2358    0.0000 H   0  0  0  0  0  0  0  0  0  0  0  0
   12.7799    0.5164    0.0000 H   0  0  0  0  0  0  0  0  0  0  0  0
    9.9739    0.5164    0.0000 H   0  0  0  0  0  0  0  0  0  0  0  0
   12.7799    2.1364    0.0000 H   0  0  0  0  0  0  0  0  0  0  0  0
    9.9739    2.1364    0.0000 H   0  0  0  0  0  0  0  0  0  0  0  0
   11.3769    2.9464    0.0000 H   0  0  0  0  0  0  0  0  0  0  0  0
    2.6597    6.1946    0.0000 H   0  0  0  0  0  0  0  0  0  0  0  0
    1.8411    6.5088    0.0000 H   0  0  0  0  0  0  0  0  0  0  0  0
    1.5269    5.6902    0.0000 H   0  0  0  0  0  0  0  0  0  0  0  0
  1 18  2  0  0  0  0
  2 21  2  0  0  0  0
  3 25  2  0  0  0  0
  4 28  1  0  0  0  0
  4 31  1  0  0  0  0
  5 28  2  0  0  0  0
  6 32  2  0  0  0  0
  7 12  1  0  0  0  0
  7 38  1  0  0  0  0
  8 17  1  0  0  0  0
  8 18  1  0  0  0  0
  8 51  1  0  0  0  0
 16  9  1  6  0  0  0
  9 21  1  0  0  0  0
  9 52  1  0  0  0  0
 10 20  1  0  0  0  0
 10 25  1  0  0  0  0
 10 26  1  0  0  0  0
 11 27  1  0  0  0  0
 11 32  1  0  0  0  0
 11 64  1  0  0  0  0
 12 34  2  0  0  0  0
 13 14  1  6  0  0  0
 13 15  1  0  0  0  0
 13 18  1  0  0  0  0
 13 43  1  0  0  0  0
 14 16  1  0  0  0  0
 14 44  1  0  0  0  0
 14 45  1  0  0  0  0
 15 17  1  0  0  0  0
 15 46  1  0  0  0  0
 15 47  1  0  0  0  0
 16 19  1  0  0  0  0
 16 48  1  0  0  0  0
 17 49  1  0  0  0  0
 17 50  1  0  0  0  0
 19 23  2  3  0  0  0
 19 53  1  0  0  0  0
 20 21  1  0  0  0  0
 20 22  1  6  0  0  0
 20 54  1  0  0  0  0
 22 24  1  0  0  0  0
 22 55  1  0  0  0  0
 22 56  1  0  0  0  0
 23 28  1  0  0  0  0
 23 57  1  0  0  0  0
 24 58  1  0  0  0  0
 24 59  1  0  0  0  0
 24 60  1  0  0  0  0
 25 27  1  0  0  0  0
 26 29  2  0  0  0  0
 26 61  1  0  0  0  0
 27 30  2  0  0  0  0
 29 30  1  0  0  0  0
 29 62  1  0  0  0  0
 30 63  1  0  0  0  0
 31 33  1  0  0  0  0
 31 65  1  0  0  0  0
 31 66  1  0  0  0  0
 32 34  1  0  0  0  0
 33 36  2  0  0  0  0
 33 37  1  0  0  0  0
 34 35  1  0  0  0  0
 35 38  2  0  0  0  0
 35 67  1  0  0  0  0
 36 39  1  0  0  0  0
 36 68  1  0  0  0  0
 37 40  2  0  0  0  0
 37 69  1  0  0  0  0
 38 42  1  0  0  0  0
 39 41  2  0  0  0  0
 39 70  1  0  0  0  0
 40 41  1  0  0  0  0
 40 71  1  0  0  0  0
 41 72  1  0  0  0  0
 42 73  1  0  0  0  0
 42 74  1  0  0  0  0
 42 75  1  0  0  0  0
M  END
> <PUBCHEM_COMPOUND_CID>
508228

> <PUBCHEM_COMPOUND_CANONICALIZED>
1

> <PUBCHEM_CACTVS_COMPLEXITY>
1110

> <PUBCHEM_CACTVS_HBOND_ACCEPTOR>
8

> <PUBCHEM_CACTVS_HBOND_DONOR>
3

> <PUBCHEM_CACTVS_ROTATABLE_BOND>
13

> <PUBCHEM_CACTVS_SUBSKEYS>
AAADcfB7uAAAAAAAAAAAAAAAAAAAAWLAAAAwQAAAAAAAAAABwAAAHgAUAAAADSzhngYyjJPQBACpA6X2WgCCAAAmIgAomKG+bNoIZjqAtbuWMYhm1hmI6ce/wCAOAAAAAAAAAAAAAAAAAAAAAAAAAAAAAA==

> <PUBCHEM_IUPAC_OPENEYE_NAME>
benzyl (4S)-4-[[(2S)-2-[3-[(5-methylisoxazole-3-carbonyl)amino]-2-oxo-1-pyridyl]butanoyl]amino]-5-[(3S)-2-oxopyrrolidin-3-yl]pent-2-enoate

> <PUBCHEM_IUPAC_CAS_NAME>
(4S)-4-[[(2S)-2-[3-[[(5-methyl-3-isoxazolyl)-oxomethyl]amino]-2-oxo-1-pyridinyl]-1-oxobutyl]amino]-5-[(3S)-2-oxo-3-pyrrolidinyl]-2-pentenoic acid (phenylmethyl) ester

> <PUBCHEM_IUPAC_NAME_MARKUP>
benzyl (4<I>S</I>)-4-[[(2<I>S</I>)-2-[3-[(5-methyl-1,2-oxazole-3-carbonyl)amino]-2-oxopyridin-1-yl]butanoyl]amino]-5-[(3<I>S</I>)-2-oxopyrrolidin-3-yl]pent-2-enoate

> <PUBCHEM_IUPAC_NAME>
benzyl (4S)-4-[[(2S)-2-[3-[(5-methyl-1,2-oxazole-3-carbonyl)amino]-2-oxopyridin-1-yl]butanoyl]amino]-5-[(3S)-2-oxopyrrolidin-3-yl]pent-2-enoate

> <PUBCHEM_IUPAC_SYSTEMATIC_NAME>
(phenylmethyl) (4S)-4-[[(2S)-2-[3-[(5-methyl-1,2-oxazol-3-yl)carbonylamino]-2-oxidanylidene-pyridin-1-yl]butanoyl]amino]-5-[(3S)-2-oxidanylidenepyrrolidin-3-yl]pent-2-enoate

> <PUBCHEM_IUPAC_TRADITIONAL_NAME>
(4S)-4-[[(2S)-2-[2-keto-3-[(5-methylisoxazole-3-carbonyl)amino]-1-pyridyl]butanoyl]amino]-5-[(3S)-2-ketopyrrolidin-3-yl]pent-2-enoic acid benzyl ester

> <PUBCHEM_IUPAC_INCHI>
InChI=1S/C30H33N5O7/c1-3-25(35-15-7-10-23(30(35)40)33-28(38)24-16-19(2)42-34-24)29(39)32-22(17-21-13-14-31-27(21)37)11-12-26(36)41-18-20-8-5-4-6-9-20/h4-12,15-16,21-22,25H,3,13-14,17-18H2,1-2H3,(H,31,37)(H,32,39)(H,33,38)/t21-,22+,25-/m0/s1

> <PUBCHEM_IUPAC_INCHIKEY>
JCRZIFCWUXJHSS-FBLLAGFSSA-N

> <PUBCHEM_XLOGP3_AA>
2.3

> <PUBCHEM_EXACT_MASS>
575.237998

> <PUBCHEM_MOLECULAR_FORMULA>
C30H33N5O7

> <PUBCHEM_MOLECULAR_WEIGHT>
575.6

> <PUBCHEM_OPENEYE_CAN_SMILES>
CCC(C(=O)NC(CC1CCNC1=O)C=CC(=O)OCC2=CC=CC=C2)N3C=CC=C(C3=O)NC(=O)C4=NOC(=C4)C

> <PUBCHEM_OPENEYE_ISO_SMILES>
CC[C@@H](C(=O)N[C@@H](C[C@@H]1CCNC1=O)C=CC(=O)OCC2=CC=CC=C2)N3C=CC=C(C3=O)NC(=O)C4=NOC(=C4)C

> <PUBCHEM_CACTVS_TPSA>
160

> <PUBCHEM_MONOISOTOPIC_WEIGHT>
575.237998

> <PUBCHEM_TOTAL_CHARGE>
0

> <PUBCHEM_HEAVY_ATOM_COUNT>
42

> <PUBCHEM_ATOM_DEF_STEREO_COUNT>
3

> <PUBCHEM_ATOM_UDEF_STEREO_COUNT>
0

> <PUBCHEM_BOND_DEF_STEREO_COUNT>
0

> <PUBCHEM_BOND_UDEF_STEREO_COUNT>
1

> <PUBCHEM_ISOTOPIC_ATOM_COUNT>
0

> <PUBCHEM_COMPONENT_COUNT>
1

> <PUBCHEM_CACTVS_TAUTO_COUNT>
-1

> <PUBCHEM_COORDINATE_TYPE>
1
5
255

> <PUBCHEM_BONDANNOTATIONS>
10  25  8
10  26  8
12  34  8
13  14  6
19  23  1
20  22  6
25  27  8
26  29  8
27  30  8
29  30  8
33  36  8
33  37  8
34  35  8
35  38  8
36  39  8
37  40  8
39  41  8
40  41  8
7  12  8
7  38  8
16  9  6

$$$$
511130
  -OEChem-02212016592D

 74 77  0     1  0  0  0  0  0999 V2000
    8.1402   -5.8372    0.0000 O   0  0  0  0  0  0  0  0  0  0  0  0
    7.9128   -0.6736    0.0000 O   0  0  0  0  0  0  0  0  0  0  0  0
   10.5109   -1.1736    0.0000 O   0  0  0  0  0  0  0  0  0  0  0  0
    4.4487    0.3264    0.0000 O   0  0  0  0  0  0  0  0  0  0  0  0
   11.3769   -2.6736    0.0000 O   0  0  0  0  0  0  0  0  0  0  0  0
    5.3147    3.8264    0.0000 O   0  0  0  0  0  0  0  0  0  0  0  0
    2.0000    4.1628    0.0000 O   0  0  0  0  0  0  0  0  0  0  0  0
    9.8615   -5.3760    0.0000 N   0  0  0  0  0  0  0  0  0  0  0  0
    7.0468   -2.1736    0.0000 N   0  0  0  0  0  0  0  0  0  0  0  0
    6.1808    0.3264    0.0000 N   0  0  0  0  0  0  0  0  0  0  0  0
    4.4487    2.3264    0.0000 N   0  0  0  0  0  0  0  0  0  0  0  0
    2.6691    3.4197    0.0000 N   0  0  0  0  0  0  0  0  0  0  0  0
    8.7788   -4.1736    0.0000 C   0  0  1  0  0  0  0  0  0  0  0  0
    9.6924   -3.7668    0.0000 C   0  0  0  0  0  0  0  0  0  0  0  0
    7.9128   -3.6736    0.0000 C   0  0  0  0  0  0  0  0  0  0  0  0
   10.3615   -4.5100    0.0000 C   0  0  0  0  0  0  0  0  0  0  0  0
    7.9128   -2.6736    0.0000 C   0  0  1  0  0  0  0  0  0  0  0  0
    8.8834   -5.1681    0.0000 C   0  0  0  0  0  0  0  0  0  0  0  0
    8.7788   -2.1736    0.0000 C   0  0  0  0  0  0  0  0  0  0  0  0
    7.0468   -1.1736    0.0000 C   0  0  0  0  0  0  0  0  0  0  0  0
    6.1808   -0.6736    0.0000 C   0  0  2  0  0  0  0  0  0  0  0  0
    9.6448   -2.6736    0.0000 C   0  0  0  0  0  0  0  0  0  0  0  0
    5.3147   -1.1736    0.0000 C   0  0  0  0  0  0  0  0  0  0  0  0
    5.3147    0.8264    0.0000 C   0  0  0  0  0  0  0  0  0  0  0  0
    7.0468    0.8264    0.0000 C   0  0  0  0  0  0  0  0  0  0  0  0
   10.5109   -2.1736    0.0000 C   0  0  0  0  0  0  0  0  0  0  0  0
    5.3147    1.8264    0.0000 C   0  0  0  0  0  0  0  0  0  0  0  0
    7.0468    1.8264    0.0000 C   0  0  0  0  0  0  0  0  0  0  0  0
    5.3147   -2.1736    0.0000 C   0  0  0  0  0  0  0  0  0  0  0  0
    6.1808    2.3264    0.0000 C   0  0  0  0  0  0  0  0  0  0  0  0
   11.3769   -0.6736    0.0000 C   0  0  0  0  0  0  0  0  0  0  0  0
    4.4487    3.3264    0.0000 C   0  0  0  0  0  0  0  0  0  0  0  0
    5.3147   -3.1736    0.0000 C   0  0  0  0  0  0  0  0  0  0  0  0
   11.3769    0.3264    0.0000 C   0  0  0  0  0  0  0  0  0  0  0  0
    3.5827    3.8264    0.0000 C   0  0  0  0  0  0  0  0  0  0  0  0
   12.2429    0.8264    0.0000 C   0  0  0  0  0  0  0  0  0  0  0  0
   10.5109    0.8264    0.0000 C   0  0  0  0  0  0  0  0  0  0  0  0
    3.4782    4.8210    0.0000 C   0  0  0  0  0  0  0  0  0  0  0  0
    2.5000    5.0289    0.0000 C   0  0  0  0  0  0  0  0  0  0  0  0
   12.2429    1.8264    0.0000 C   0  0  0  0  0  0  0  0  0  0  0  0
   10.5109    1.8264    0.0000 C   0  0  0  0  0  0  0  0  0  0  0  0
   11.3769    2.3264    0.0000 C   0  0  0  0  0  0  0  0  0  0  0  0
    2.0933    5.9424    0.0000 C   0  0  0  0  0  0  0  0  0  0  0  0
    8.8113   -3.5544    0.0000 H   0  0  0  0  0  0  0  0  0  0  0  0
   10.1940   -3.4024    0.0000 H   0  0  0  0  0  0  0  0  0  0  0  0
    9.3824   -3.2299    0.0000 H   0  0  0  0  0  0  0  0  0  0  0  0
    7.3022   -3.5659    0.0000 H   0  0  0  0  0  0  0  0  0  0  0  0
    7.7008   -4.2562    0.0000 H   0  0  0  0  0  0  0  0  0  0  0  0
   10.8631   -4.8744    0.0000 H   0  0  0  0  0  0  0  0  0  0  0  0
   10.7764   -4.0492    0.0000 H   0  0  0  0  0  0  0  0  0  0  0  0
    7.9128   -2.0536    0.0000 H   0  0  0  0  0  0  0  0  0  0  0  0
   10.1137   -5.9424    0.0000 H   0  0  0  0  0  0  0  0  0  0  0  0
    6.5098   -2.4836    0.0000 H   0  0  0  0  0  0  0  0  0  0  0  0
    8.7788   -1.5536    0.0000 H   0  0  0  0  0  0  0  0  0  0  0  0
    6.7177   -0.3636    0.0000 H   0  0  0  0  0  0  0  0  0  0  0  0
    9.6448   -3.2936    0.0000 H   0  0  0  0  0  0  0  0  0  0  0  0
    5.1027   -0.5910    0.0000 H   0  0  0  0  0  0  0  0  0  0  0  0
    4.7042   -1.2812    0.0000 H   0  0  0  0  0  0  0  0  0  0  0  0
    7.5837    0.5164    0.0000 H   0  0  0  0  0  0  0  0  0  0  0  0
    7.5837    2.1364    0.0000 H   0  0  0  0  0  0  0  0  0  0  0  0
    6.1808    2.9464    0.0000 H   0  0  0  0  0  0  0  0  0  0  0  0
    3.9118    2.0164    0.0000 H   0  0  0  0  0  0  0  0  0  0  0  0
   11.5890   -1.2562    0.0000 H   0  0  0  0  0  0  0  0  0  0  0  0
   11.9875   -0.5659    0.0000 H   0  0  0  0  0  0  0  0  0  0  0  0
    5.3147   -3.7936    0.0000 H   0  0  0  0  0  0  0  0  0  0  0  0
   12.7799    0.5164    0.0000 H   0  0  0  0  0  0  0  0  0  0  0  0
    9.9739    0.5164    0.0000 H   0  0  0  0  0  0  0  0  0  0  0  0
    3.9389    5.2358    0.0000 H   0  0  0  0  0  0  0  0  0  0  0  0
   12.7799    2.1364    0.0000 H   0  0  0  0  0  0  0  0  0  0  0  0
    9.9739    2.1364    0.0000 H   0  0  0  0  0  0  0  0  0  0  0  0
   11.3769    2.9464    0.0000 H   0  0  0  0  0  0  0  0  0  0  0  0
    2.6597    6.1946    0.0000 H   0  0  0  0  0  0  0  0  0  0  0  0
    1.8411    6.5088    0.0000 H   0  0  0  0  0  0  0  0  0  0  0  0
    1.5269    5.6902    0.0000 H   0  0  0  0  0  0  0  0  0  0  0  0
  1 18  2  0  0  0  0
  2 20  2  0  0  0  0
  3 26  1  0  0  0  0
  3 31  1  0  0  0  0
  4 24  2  0  0  0  0
  5 26  2  0  0  0  0
  6 32  2  0  0  0  0
  7 12  1  0  0  0  0
  7 39  1  0  0  0  0
  8 16  1  0  0  0  0
  8 18  1  0  0  0  0
  8 52  1  0  0  0  0
 17  9  1  6  0  0  0
  9 20  1  0  0  0  0
  9 53  1  0  0  0  0
 10 21  1  0  0  0  0
 10 24  1  0  0  0  0
 10 25  1  0  0  0  0
 11 27  1  0  0  0  0
 11 32  1  0  0  0  0
 11 62  1  0  0  0  0
 12 35  2  0  0  0  0
 13 14  1  0  0  0  0
 13 15  1  6  0  0  0
 13 18  1  0  0  0  0
 13 44  1  0  0  0  0
 14 16  1  0  0  0  0
 14 45  1  0  0  0  0
 14 46  1  0  0  0  0
 15 17  1  0  0  0  0
 15 47  1  0  0  0  0
 15 48  1  0  0  0  0
 16 49  1  0  0  0  0
 16 50  1  0  0  0  0
 17 19  1  0  0  0  0
 17 51  1  0  0  0  0
 19 22  2  3  0  0  0
 19 54  1  0  0  0  0
 21 20  1  6  0  0  0
 21 23  1  0  0  0  0
 21 55  1  0  0  0  0
 22 26  1  0  0  0  0
 22 56  1  0  0  0  0
 23 29  1  0  0  0  0
 23 57  1  0  0  0  0
 23 58  1  0  0  0  0
 24 27  1  0  0  0  0
 25 28  2  0  0  0  0
 25 59  1  0  0  0  0
 27 30  2  0  0  0  0
 28 30  1  0  0  0  0
 28 60  1  0  0  0  0
 29 33  3  0  0  0  0
 30 61  1  0  0  0  0
 31 34  1  0  0  0  0
 31 63  1  0  0  0  0
 31 64  1  0  0  0  0
 32 35  1  0  0  0  0
 33 65  1  0  0  0  0
 34 36  2  0  0  0  0
 34 37  1  0  0  0  0
 35 38  1  0  0  0  0
 36 40  1  0  0  0  0
 36 66  1  0  0  0  0
 37 41  2  0  0  0  0
 37 67  1  0  0  0  0
 38 39  2  0  0  0  0
 38 68  1  0  0  0  0
 39 43  1  0  0  0  0
 40 42  2  0  0  0  0
 40 69  1  0  0  0  0
 41 42  1  0  0  0  0
 41 70  1  0  0  0  0
 42 71  1  0  0  0  0
 43 72  1  0  0  0  0
 43 73  1  0  0  0  0
 43 74  1  0  0  0  0
M  END
> <PUBCHEM_COMPOUND_CID>
511130

> <PUBCHEM_COMPOUND_CANONICALIZED>
1

> <PUBCHEM_CACTVS_COMPLEXITY>
1210

> <PUBCHEM_CACTVS_HBOND_ACCEPTOR>
8

> <PUBCHEM_CACTVS_HBOND_DONOR>
3

> <PUBCHEM_CACTVS_ROTATABLE_BOND>
13

> <PUBCHEM_CACTVS_SUBSKEYS>
AAADceB7uAAAAAAAAAAAAAAAAAAAAWLAAAAwQAAAAAAAAAABwAAAHgAUAAAADSzhngYyjJPQBADpG6X2WgiCAAAmIgAomKG+bNoIZjqAtbuWMYhm1hmI6ce/wCAOAAAAAAAAAAAAAAAAAAAAAAAAAAAAAA==

> <PUBCHEM_IUPAC_OPENEYE_NAME>
benzyl (4S)-4-[[(2S)-2-[3-[(5-methylisoxazole-3-carbonyl)amino]-2-oxo-1-pyridyl]pent-4-ynoyl]amino]-5-[(3S)-2-oxopyrrolidin-3-yl]pent-2-enoate

> <PUBCHEM_IUPAC_CAS_NAME>
(4S)-4-[[(2S)-2-[3-[[(5-methyl-3-isoxazolyl)-oxomethyl]amino]-2-oxo-1-pyridinyl]-1-oxopent-4-ynyl]amino]-5-[(3S)-2-oxo-3-pyrrolidinyl]-2-pentenoic acid (phenylmethyl) ester

> <PUBCHEM_IUPAC_NAME_MARKUP>
benzyl (4<I>S</I>)-4-[[(2<I>S</I>)-2-[3-[(5-methyl-1,2-oxazole-3-carbonyl)amino]-2-oxopyridin-1-yl]pent-4-ynoyl]amino]-5-[(3<I>S</I>)-2-oxopyrrolidin-3-yl]pent-2-enoate

> <PUBCHEM_IUPAC_NAME>
benzyl (4S)-4-[[(2S)-2-[3-[(5-methyl-1,2-oxazole-3-carbonyl)amino]-2-oxopyridin-1-yl]pent-4-ynoyl]amino]-5-[(3S)-2-oxopyrrolidin-3-yl]pent-2-enoate

> <PUBCHEM_IUPAC_SYSTEMATIC_NAME>
(phenylmethyl) (4S)-4-[[(2S)-2-[3-[(5-methyl-1,2-oxazol-3-yl)carbonylamino]-2-oxidanylidene-pyridin-1-yl]pent-4-ynoyl]amino]-5-[(3S)-2-oxidanylidenepyrrolidin-3-yl]pent-2-enoate

> <PUBCHEM_IUPAC_TRADITIONAL_NAME>
(4S)-4-[[(2S)-2-[2-keto-3-[(5-methylisoxazole-3-carbonyl)amino]-1-pyridyl]pent-4-ynoyl]amino]-5-[(3S)-2-ketopyrrolidin-3-yl]pent-2-enoic acid benzyl ester

> <PUBCHEM_IUPAC_INCHI>
InChI=1S/C31H31N5O7/c1-3-8-26(36-16-7-11-24(31(36)41)34-29(39)25-17-20(2)43-35-25)30(40)33-23(18-22-14-15-32-28(22)38)12-13-27(37)42-19-21-9-5-4-6-10-21/h1,4-7,9-13,16-17,22-23,26H,8,14-15,18-19H2,2H3,(H,32,38)(H,33,40)(H,34,39)/t22-,23+,26-/m0/s1

> <PUBCHEM_IUPAC_INCHIKEY>
OAMLXQDGOIMGAF-ZEVJAHDQSA-N

> <PUBCHEM_XLOGP3_AA>
2

> <PUBCHEM_EXACT_MASS>
585.222348

> <PUBCHEM_MOLECULAR_FORMULA>
C31H31N5O7

> <PUBCHEM_MOLECULAR_WEIGHT>
585.6

> <PUBCHEM_OPENEYE_CAN_SMILES>
CC1=CC(=NO1)C(=O)NC2=CC=CN(C2=O)C(CC#C)C(=O)NC(CC3CCNC3=O)C=CC(=O)OCC4=CC=CC=C4

> <PUBCHEM_OPENEYE_ISO_SMILES>
CC1=CC(=NO1)C(=O)NC2=CC=CN(C2=O)[C@@H](CC#C)C(=O)N[C@@H](C[C@@H]3CCNC3=O)C=CC(=O)OCC4=CC=CC=C4

> <PUBCHEM_CACTVS_TPSA>
160

> <PUBCHEM_MONOISOTOPIC_WEIGHT>
585.222348

> <PUBCHEM_TOTAL_CHARGE>
0

> <PUBCHEM_HEAVY_ATOM_COUNT>
43

> <PUBCHEM_ATOM_DEF_STEREO_COUNT>
3

> <PUBCHEM_ATOM_UDEF_STEREO_COUNT>
0

> <PUBCHEM_BOND_DEF_STEREO_COUNT>
0

> <PUBCHEM_BOND_UDEF_STEREO_COUNT>
1

> <PUBCHEM_ISOTOPIC_ATOM_COUNT>
0

> <PUBCHEM_COMPONENT_COUNT>
1

> <PUBCHEM_CACTVS_TAUTO_COUNT>
-1

> <PUBCHEM_COORDINATE_TYPE>
1
5
255

> <PUBCHEM_BONDANNOTATIONS>
10  24  8
10  25  8
12  35  8
13  15  6
19  22  1
21  20  6
24  27  8
25  28  8
27  30  8
28  30  8
34  36  8
34  37  8
35  38  8
36  40  8
37  41  8
38  39  8
40  42  8
41  42  8
7  12  8
7  39  8
17  9  6

$$$$
5483090
  -OEChem-02212016592D

 82 84  0     1  0  0  0  0  0999 V2000
    4.6261   -5.2702    0.0000 F   0  0  0  0  0  0  0  0  0  0  0  0
    2.0000    3.5086    0.0000 O   0  0  0  0  0  0  0  0  0  0  0  0
    6.3582    0.7298    0.0000 O   0  0  0  0  0  0  0  0  0  0  0  0
    7.2242    0.2298    0.0000 O   0  0  0  0  0  0  0  0  0  0  0  0
    7.2242    3.2298    0.0000 O   0  0  0  0  0  0  0  0  0  0  0  0
    9.8222   -2.2702    0.0000 O   0  0  0  0  0  0  0  0  0  0  0  0
    6.3582    4.7298    0.0000 O   0  0  0  0  0  0  0  0  0  0  0  0
   12.2710   -0.4338    0.0000 O   0  0  0  0  0  0  0  0  0  0  0  0
    3.2601    4.7686    0.0000 N   0  0  0  0  0  0  0  0  0  0  0  0
    4.6261    0.7298    0.0000 N   0  0  0  0  0  0  0  0  0  0  0  0
    8.9562   -0.7702    0.0000 N   0  0  0  0  0  0  0  0  0  0  0  0
   11.6018   -1.1770    0.0000 N   0  0  0  0  0  0  0  0  0  0  0  0
    3.7601    3.2298    0.0000 C   0  0  2  0  0  0  0  0  0  0  0  0
    3.7601    2.2298    0.0000 C   0  0  0  0  0  0  0  0  0  0  0  0
    4.5691    3.8176    0.0000 C   0  0  0  0  0  0  0  0  0  0  0  0
    4.6261    1.7298    0.0000 C   0  0  1  0  0  0  0  0  0  0  0  0
    4.2601    4.7686    0.0000 C   0  0  0  0  0  0  0  0  0  0  0  0
    2.9511    3.8176    0.0000 C   0  0  0  0  0  0  0  0  0  0  0  0
    5.4921   -0.7702    0.0000 C   0  0  2  0  0  0  0  0  0  0  0  0
    6.3582   -1.2702    0.0000 C   0  0  0  0  0  0  0  0  0  0  0  0
    5.4921    0.2298    0.0000 C   0  0  0  0  0  0  0  0  0  0  0  0
    8.0902   -1.2702    0.0000 C   0  0  1  0  0  0  0  0  0  0  0  0
    4.6261   -1.2702    0.0000 C   0  0  0  0  0  0  0  0  0  0  0  0
    8.0902   -2.2702    0.0000 C   0  0  0  0  0  0  0  0  0  0  0  0
    7.2242   -0.7702    0.0000 C   0  0  0  0  0  0  0  0  0  0  0  0
    5.4921    2.2298    0.0000 C   0  0  0  0  0  0  0  0  0  0  0  0
    4.6261   -2.2702    0.0000 C   0  0  0  0  0  0  0  0  0  0  0  0
    8.9562   -2.7702    0.0000 C   0  0  0  0  0  0  0  0  0  0  0  0
    7.2242   -2.7702    0.0000 C   0  0  0  0  0  0  0  0  0  0  0  0
    5.4921    3.2298    0.0000 C   0  0  0  0  0  0  0  0  0  0  0  0
    5.4921   -2.7702    0.0000 C   0  0  0  0  0  0  0  0  0  0  0  0
    3.7601   -2.7702    0.0000 C   0  0  0  0  0  0  0  0  0  0  0  0
    9.8222   -1.2702    0.0000 C   0  0  0  0  0  0  0  0  0  0  0  0
    6.3582    3.7298    0.0000 C   0  0  0  0  0  0  0  0  0  0  0  0
    5.4921   -3.7702    0.0000 C   0  0  0  0  0  0  0  0  0  0  0  0
    3.7601   -3.7702    0.0000 C   0  0  0  0  0  0  0  0  0  0  0  0
   10.6883   -0.7702    0.0000 C   0  0  0  0  0  0  0  0  0  0  0  0
    4.6261   -4.2702    0.0000 C   0  0  0  0  0  0  0  0  0  0  0  0
   10.7928    0.2243    0.0000 C   0  0  0  0  0  0  0  0  0  0  0  0
   11.7710    0.4322    0.0000 C   0  0  0  0  0  0  0  0  0  0  0  0
    8.0902    3.7298    0.0000 C   0  0  0  0  0  0  0  0  0  0  0  0
   12.1777    1.3458    0.0000 C   0  0  0  0  0  0  0  0  0  0  0  0
    8.9562    3.2298    0.0000 C   0  0  0  0  0  0  0  0  0  0  0  0
    4.3125    2.9483    0.0000 H   0  0  0  0  0  0  0  0  0  0  0  0
    3.1495    2.3374    0.0000 H   0  0  0  0  0  0  0  0  0  0  0  0
    3.5480    1.6472    0.0000 H   0  0  0  0  0  0  0  0  0  0  0  0
    4.8791    3.2806    0.0000 H   0  0  0  0  0  0  0  0  0  0  0  0
    5.1355    4.0698    0.0000 H   0  0  0  0  0  0  0  0  0  0  0  0
    5.1630    1.4198    0.0000 H   0  0  0  0  0  0  0  0  0  0  0  0
    4.8665    4.8975    0.0000 H   0  0  0  0  0  0  0  0  0  0  0  0
    4.1953    5.3852    0.0000 H   0  0  0  0  0  0  0  0  0  0  0  0
    6.0291   -0.4602    0.0000 H   0  0  0  0  0  0  0  0  0  0  0  0
    2.8956    5.2702    0.0000 H   0  0  0  0  0  0  0  0  0  0  0  0
    4.0892    0.4198    0.0000 H   0  0  0  0  0  0  0  0  0  0  0  0
    5.9596   -1.7452    0.0000 H   0  0  0  0  0  0  0  0  0  0  0  0
    6.7567   -1.7452    0.0000 H   0  0  0  0  0  0  0  0  0  0  0  0
    8.0902   -0.6502    0.0000 H   0  0  0  0  0  0  0  0  0  0  0  0
    4.4140   -0.6876    0.0000 H   0  0  0  0  0  0  0  0  0  0  0  0
    4.0155   -1.3779    0.0000 H   0  0  0  0  0  0  0  0  0  0  0  0
    8.0902   -2.8902    0.0000 H   0  0  0  0  0  0  0  0  0  0  0  0
    6.0291    1.9198    0.0000 H   0  0  0  0  0  0  0  0  0  0  0  0
    8.9562   -0.1502    0.0000 H   0  0  0  0  0  0  0  0  0  0  0  0
    8.6462   -3.3072    0.0000 H   0  0  0  0  0  0  0  0  0  0  0  0
    9.4932   -3.0802    0.0000 H   0  0  0  0  0  0  0  0  0  0  0  0
    9.2662   -2.2333    0.0000 H   0  0  0  0  0  0  0  0  0  0  0  0
    6.9142   -2.2333    0.0000 H   0  0  0  0  0  0  0  0  0  0  0  0
    6.6872   -3.0802    0.0000 H   0  0  0  0  0  0  0  0  0  0  0  0
    7.5342   -3.3072    0.0000 H   0  0  0  0  0  0  0  0  0  0  0  0
    4.9552    3.5398    0.0000 H   0  0  0  0  0  0  0  0  0  0  0  0
    6.0291   -2.4602    0.0000 H   0  0  0  0  0  0  0  0  0  0  0  0
    3.2231   -2.4602    0.0000 H   0  0  0  0  0  0  0  0  0  0  0  0
    6.0291   -4.0802    0.0000 H   0  0  0  0  0  0  0  0  0  0  0  0
    3.2231   -4.0802    0.0000 H   0  0  0  0  0  0  0  0  0  0  0  0
   10.3321    0.6392    0.0000 H   0  0  0  0  0  0  0  0  0  0  0  0
    8.4887    4.2047    0.0000 H   0  0  0  0  0  0  0  0  0  0  0  0
    7.6917    4.2047    0.0000 H   0  0  0  0  0  0  0  0  0  0  0  0
   12.7441    1.0936    0.0000 H   0  0  0  0  0  0  0  0  0  0  0  0
   12.4299    1.9122    0.0000 H   0  0  0  0  0  0  0  0  0  0  0  0
   11.6113    1.5979    0.0000 H   0  0  0  0  0  0  0  0  0  0  0  0
    8.6462    2.6928    0.0000 H   0  0  0  0  0  0  0  0  0  0  0  0
    9.4932    2.9198    0.0000 H   0  0  0  0  0  0  0  0  0  0  0  0
    9.2662    3.7667    0.0000 H   0  0  0  0  0  0  0  0  0  0  0  0
  1 38  1  0  0  0  0
  2 18  2  0  0  0  0
  3 21  2  0  0  0  0
  4 25  2  0  0  0  0
  5 34  1  0  0  0  0
  5 41  1  0  0  0  0
  6 33  2  0  0  0  0
  7 34  2  0  0  0  0
  8 12  1  0  0  0  0
  8 40  1  0  0  0  0
  9 17  1  0  0  0  0
  9 18  1  0  0  0  0
  9 53  1  0  0  0  0
 16 10  1  1  0  0  0
 10 21  1  0  0  0  0
 10 54  1  0  0  0  0
 22 11  1  1  0  0  0
 11 33  1  0  0  0  0
 11 62  1  0  0  0  0
 12 37  2  0  0  0  0
 13 14  1  1  0  0  0
 13 15  1  0  0  0  0
 13 18  1  0  0  0  0
 13 44  1  0  0  0  0
 14 16  1  0  0  0  0
 14 45  1  0  0  0  0
 14 46  1  0  0  0  0
 15 17  1  0  0  0  0
 15 47  1  0  0  0  0
 15 48  1  0  0  0  0
 16 26  1  0  0  0  0
 16 49  1  0  0  0  0
 17 50  1  0  0  0  0
 17 51  1  0  0  0  0
 19 20  1  1  0  0  0
 19 21  1  0  0  0  0
 19 23  1  0  0  0  0
 19 52  1  0  0  0  0
 20 25  1  0  0  0  0
 20 55  1  0  0  0  0
 20 56  1  0  0  0  0
 22 24  1  0  0  0  0
 22 25  1  0  0  0  0
 22 57  1  0  0  0  0
 23 27  1  0  0  0  0
 23 58  1  0  0  0  0
 23 59  1  0  0  0  0
 24 28  1  0  0  0  0
 24 29  1  0  0  0  0
 24 60  1  0  0  0  0
 26 30  2  3  0  0  0
 26 61  1  0  0  0  0
 27 31  2  0  0  0  0
 27 32  1  0  0  0  0
 28 63  1  0  0  0  0
 28 64  1  0  0  0  0
 28 65  1  0  0  0  0
 29 66  1  0  0  0  0
 29 67  1  0  0  0  0
 29 68  1  0  0  0  0
 30 34  1  0  0  0  0
 30 69  1  0  0  0  0
 31 35  1  0  0  0  0
 31 70  1  0  0  0  0
 32 36  2  0  0  0  0
 32 71  1  0  0  0  0
 33 37  1  0  0  0  0
 35 38  2  0  0  0  0
 35 72  1  0  0  0  0
 36 38  1  0  0  0  0
 36 73  1  0  0  0  0
 37 39  1  0  0  0  0
 39 40  2  0  0  0  0
 39 74  1  0  0  0  0
 40 42  1  0  0  0  0
 41 43  1  0  0  0  0
 41 75  1  0  0  0  0
 41 76  1  0  0  0  0
 42 77  1  0  0  0  0
 42 78  1  0  0  0  0
 42 79  1  0  0  0  0
 43 80  1  0  0  0  0
 43 81  1  0  0  0  0
 43 82  1  0  0  0  0
M  END
> <PUBCHEM_COMPOUND_CID>
5483090

> <PUBCHEM_COMPOUND_CANONICALIZED>
1

> <PUBCHEM_CACTVS_COMPLEXITY>
1010

> <PUBCHEM_CACTVS_HBOND_ACCEPTOR>
9

> <PUBCHEM_CACTVS_HBOND_DONOR>
3

> <PUBCHEM_CACTVS_ROTATABLE_BOND>
16

> <PUBCHEM_CACTVS_SUBSKEYS>
AAADcfB7uQAAAAAAAAAAAAAAAAAAAWLAAAAwAAAAAAAAAAABwAAAHwAUAAAADSzhng4yjJLQBACpA6XyWgCCAAAmIgAomKG+bNoIZjqAtbOWMYhmlhiI6cc/icCeAAAAAAAAAAAAAAAAAAAAAAAAAAAAAA==

> <PUBCHEM_IUPAC_OPENEYE_NAME>
ethyl (4S)-4-[[(2R,5S)-2-[(4-fluorophenyl)methyl]-6-methyl-5-[(5-methylisoxazole-3-carbonyl)amino]-4-oxo-heptanoyl]amino]-5-[(3S)-2-oxopyrrolidin-3-yl]pent-2-enoate

> <PUBCHEM_IUPAC_CAS_NAME>
(4S)-4-[[(2R,5S)-2-[(4-fluorophenyl)methyl]-6-methyl-5-[[(5-methyl-3-isoxazolyl)-oxomethyl]amino]-1,4-dioxoheptyl]amino]-5-[(3S)-2-oxo-3-pyrrolidinyl]-2-pentenoic acid ethyl ester

> <PUBCHEM_IUPAC_NAME_MARKUP>
ethyl (4<I>S</I>)-4-[[(2<I>R</I>,5<I>S</I>)-2-[(4-fluorophenyl)methyl]-6-methyl-5-[(5-methyl-1,2-oxazole-3-carbonyl)amino]-4-oxoheptanoyl]amino]-5-[(3<I>S</I>)-2-oxopyrrolidin-3-yl]pent-2-enoate

> <PUBCHEM_IUPAC_NAME>
ethyl (4S)-4-[[(2R,5S)-2-[(4-fluorophenyl)methyl]-6-methyl-5-[(5-methyl-1,2-oxazole-3-carbonyl)amino]-4-oxoheptanoyl]amino]-5-[(3S)-2-oxopyrrolidin-3-yl]pent-2-enoate

> <PUBCHEM_IUPAC_SYSTEMATIC_NAME>
ethyl (4S)-4-[[(2R,5S)-2-[(4-fluorophenyl)methyl]-6-methyl-5-[(5-methyl-1,2-oxazol-3-yl)carbonylamino]-4-oxidanylidene-heptanoyl]amino]-5-[(3S)-2-oxidanylidenepyrrolidin-3-yl]pent-2-enoate

> <PUBCHEM_IUPAC_TRADITIONAL_NAME>
(4S)-4-[[(2R,5S)-2-(4-fluorobenzyl)-4-keto-6-methyl-5-[(5-methylisoxazole-3-carbonyl)amino]heptanoyl]amino]-5-[(3S)-2-ketopyrrolidin-3-yl]pent-2-enoic acid ethyl ester

> <PUBCHEM_IUPAC_INCHI>
InChI=1S/C31H39FN4O7/c1-5-42-27(38)11-10-24(16-21-12-13-33-29(21)39)34-30(40)22(15-20-6-8-23(32)9-7-20)17-26(37)28(18(2)3)35-31(41)25-14-19(4)43-36-25/h6-11,14,18,21-22,24,28H,5,12-13,15-17H2,1-4H3,(H,33,39)(H,34,40)(H,35,41)/t21-,22+,24+,28-/m0/s1

> <PUBCHEM_IUPAC_INCHIKEY>
CAYJBRBGZBCZKO-IFILWLFVSA-N

> <PUBCHEM_XLOGP3_AA>
3.1

> <PUBCHEM_EXACT_MASS>
598.280278

> <PUBCHEM_MOLECULAR_FORMULA>
C31H39FN4O7

> <PUBCHEM_MOLECULAR_WEIGHT>
598.7

> <PUBCHEM_OPENEYE_CAN_SMILES>
CCOC(=O)C=CC(CC1CCNC1=O)NC(=O)C(CC2=CC=C(C=C2)F)CC(=O)C(C(C)C)NC(=O)C3=NOC(=C3)C

> <PUBCHEM_OPENEYE_ISO_SMILES>
CCOC(=O)C=C[C@H](C[C@@H]1CCNC1=O)NC(=O)[C@H](CC2=CC=C(C=C2)F)CC(=O)[C@H](C(C)C)NC(=O)C3=NOC(=C3)C

> <PUBCHEM_CACTVS_TPSA>
157

> <PUBCHEM_MONOISOTOPIC_WEIGHT>
598.280278

> <PUBCHEM_TOTAL_CHARGE>
0

> <PUBCHEM_HEAVY_ATOM_COUNT>
43

> <PUBCHEM_ATOM_DEF_STEREO_COUNT>
4

> <PUBCHEM_ATOM_UDEF_STEREO_COUNT>
0

> <PUBCHEM_BOND_DEF_STEREO_COUNT>
0

> <PUBCHEM_BOND_UDEF_STEREO_COUNT>
1

> <PUBCHEM_ISOTOPIC_ATOM_COUNT>
0

> <PUBCHEM_COMPONENT_COUNT>
1

> <PUBCHEM_CACTVS_TAUTO_COUNT>
-1

> <PUBCHEM_COORDINATE_TYPE>
1
5
255

> <PUBCHEM_BONDANNOTATIONS>
16  10  5
22  11  5
12  37  8
13  14  5
19  20  5
26  30  1
27  31  8
27  32  8
31  35  8
32  36  8
35  38  8
36  38  8
37  39  8
39  40  8
8  12  8
8  40  8

$$$$
6323191
  -OEChem-02212016592D

 97 99  0     1  0  0  0  0  0999 V2000
   15.0964   -0.6929    0.0000 O   0  0  0  0  0  0  0  0  0  0  0  0
   10.5109    1.6920    0.0000 O   0  0  0  0  0  0  0  0  0  0  0  0
    9.6448    2.1920    0.0000 O   0  0  0  0  0  0  0  0  0  0  0  0
   10.5109   -2.3080    0.0000 O   0  0  0  0  0  0  0  0  0  0  0  0
    7.0468    4.6920    0.0000 O   0  0  0  0  0  0  0  0  0  0  0  0
    9.6448   -0.8080    0.0000 O   0  0  0  0  0  0  0  0  0  0  0  0
    4.4487    2.1920    0.0000 O   0  0  0  0  0  0  0  0  0  0  0  0
    2.0000    4.0284    0.0000 O   0  0  0  0  0  0  0  0  0  0  0  0
   15.5577    1.0284    0.0000 N   0  0  0  0  0  0  0  0  0  0  0  0
   12.2429    1.6920    0.0000 N   0  0  0  0  0  0  0  0  0  0  0  0
   10.5109    3.6920    0.0000 N   0  0  0  0  0  0  0  0  0  0  0  0
    7.9128    3.1920    0.0000 N   0  0  0  0  0  0  0  0  0  0  0  0
    5.3147    3.6920    0.0000 N   0  0  0  0  0  0  0  0  0  0  0  0
    2.6691    3.2853    0.0000 N   0  0  0  0  0  0  0  0  0  0  0  0
   13.9750    0.6920    0.0000 C   0  0  2  0  0  0  0  0  0  0  0  0
   13.1090    0.1920    0.0000 C   0  0  0  0  0  0  0  0  0  0  0  0
   14.0795    1.6865    0.0000 C   0  0  0  0  0  0  0  0  0  0  0  0
   12.2429    0.6920    0.0000 C   0  0  1  0  0  0  0  0  0  0  0  0
   15.0577    1.8944    0.0000 C   0  0  0  0  0  0  0  0  0  0  0  0
   14.8885    0.2853    0.0000 C   0  0  0  0  0  0  0  0  0  0  0  0
   11.3769    3.1920    0.0000 C   0  0  1  0  0  0  0  0  0  0  0  0
   12.2429    3.6920    0.0000 C   0  0  0  0  0  0  0  0  0  0  0  0
   11.3769    2.1920    0.0000 C   0  0  0  0  0  0  0  0  0  0  0  0
   12.2429    4.6920    0.0000 C   0  0  0  0  0  0  0  0  0  0  0  0
   11.3769    0.1920    0.0000 C   0  0  0  0  0  0  0  0  0  0  0  0
    8.7788    3.6920    0.0000 C   0  0  1  0  0  0  0  0  0  0  0  0
    8.7788    4.6920    0.0000 C   0  0  0  0  0  0  0  0  0  0  0  0
    9.6448    3.1920    0.0000 C   0  0  0  0  0  0  0  0  0  0  0  0
   13.1090    5.1920    0.0000 C   0  0  0  0  0  0  0  0  0  0  0  0
   11.3769    5.1920    0.0000 C   0  0  0  0  0  0  0  0  0  0  0  0
   11.3769   -0.8080    0.0000 C   0  0  0  0  0  0  0  0  0  0  0  0
    7.9128    5.1920    0.0000 C   0  0  0  0  0  0  0  0  0  0  0  0
    9.6448    5.1920    0.0000 C   0  0  0  0  0  0  0  0  0  0  0  0
    7.0468    3.6920    0.0000 C   0  0  0  0  0  0  0  0  0  0  0  0
    6.1808    3.1920    0.0000 C   0  0  2  0  0  0  0  0  0  0  0  0
   10.5109   -1.3080    0.0000 C   0  0  0  0  0  0  0  0  0  0  0  0
    6.1808    2.1920    0.0000 C   0  0  0  0  0  0  0  0  0  0  0  0
    4.4487    3.1920    0.0000 C   0  0  0  0  0  0  0  0  0  0  0  0
    9.6448   -2.8080    0.0000 C   0  0  0  0  0  0  0  0  0  0  0  0
    3.5827    3.6920    0.0000 C   0  0  0  0  0  0  0  0  0  0  0  0
    9.6448   -3.8080    0.0000 C   0  0  0  0  0  0  0  0  0  0  0  0
    3.4782    4.6865    0.0000 C   0  0  0  0  0  0  0  0  0  0  0  0
    8.7788   -4.3080    0.0000 C   0  0  0  0  0  0  0  0  0  0  0  0
   10.5109   -4.3080    0.0000 C   0  0  0  0  0  0  0  0  0  0  0  0
    2.5000    4.8944    0.0000 C   0  0  0  0  0  0  0  0  0  0  0  0
    8.7788   -5.3080    0.0000 C   0  0  0  0  0  0  0  0  0  0  0  0
   10.5109   -5.3080    0.0000 C   0  0  0  0  0  0  0  0  0  0  0  0
    9.6448   -5.8080    0.0000 C   0  0  0  0  0  0  0  0  0  0  0  0
    2.0933    5.8080    0.0000 C   0  0  0  0  0  0  0  0  0  0  0  0
   14.0074    0.0729    0.0000 H   0  0  0  0  0  0  0  0  0  0  0  0
   12.7104   -0.2829    0.0000 H   0  0  0  0  0  0  0  0  0  0  0  0
   13.5075   -0.2829    0.0000 H   0  0  0  0  0  0  0  0  0  0  0  0
   14.0147    2.3031    0.0000 H   0  0  0  0  0  0  0  0  0  0  0  0
   13.4595    1.6865    0.0000 H   0  0  0  0  0  0  0  0  0  0  0  0
   12.7799    1.0020    0.0000 H   0  0  0  0  0  0  0  0  0  0  0  0
   15.6241    2.1466    0.0000 H   0  0  0  0  0  0  0  0  0  0  0  0
   14.8661    2.4841    0.0000 H   0  0  0  0  0  0  0  0  0  0  0  0
   16.1743    0.9636    0.0000 H   0  0  0  0  0  0  0  0  0  0  0  0
   10.8400    2.8820    0.0000 H   0  0  0  0  0  0  0  0  0  0  0  0
   12.4550    3.1094    0.0000 H   0  0  0  0  0  0  0  0  0  0  0  0
   12.8535    3.7997    0.0000 H   0  0  0  0  0  0  0  0  0  0  0  0
   12.7799    2.0020    0.0000 H   0  0  0  0  0  0  0  0  0  0  0  0
   12.7799    4.3820    0.0000 H   0  0  0  0  0  0  0  0  0  0  0  0
   10.8400    0.5020    0.0000 H   0  0  0  0  0  0  0  0  0  0  0  0
    8.2419    4.0020    0.0000 H   0  0  0  0  0  0  0  0  0  0  0  0
   10.5109    4.3120    0.0000 H   0  0  0  0  0  0  0  0  0  0  0  0
    9.3158    4.3820    0.0000 H   0  0  0  0  0  0  0  0  0  0  0  0
   13.4190    4.6551    0.0000 H   0  0  0  0  0  0  0  0  0  0  0  0
   13.6459    5.5020    0.0000 H   0  0  0  0  0  0  0  0  0  0  0  0
   12.7990    5.7290    0.0000 H   0  0  0  0  0  0  0  0  0  0  0  0
   11.6869    5.7290    0.0000 H   0  0  0  0  0  0  0  0  0  0  0  0
   10.8400    5.5020    0.0000 H   0  0  0  0  0  0  0  0  0  0  0  0
   11.0669    4.6551    0.0000 H   0  0  0  0  0  0  0  0  0  0  0  0
    7.9128    2.5720    0.0000 H   0  0  0  0  0  0  0  0  0  0  0  0
   11.9138   -1.1180    0.0000 H   0  0  0  0  0  0  0  0  0  0  0  0
    8.2228    5.7290    0.0000 H   0  0  0  0  0  0  0  0  0  0  0  0
    7.3759    5.5020    0.0000 H   0  0  0  0  0  0  0  0  0  0  0  0
    7.6028    4.6551    0.0000 H   0  0  0  0  0  0  0  0  0  0  0  0
    9.9548    4.6551    0.0000 H   0  0  0  0  0  0  0  0  0  0  0  0
   10.1818    5.5020    0.0000 H   0  0  0  0  0  0  0  0  0  0  0  0
    9.3348    5.7290    0.0000 H   0  0  0  0  0  0  0  0  0  0  0  0
    6.1808    3.8120    0.0000 H   0  0  0  0  0  0  0  0  0  0  0  0
    5.5608    2.1920    0.0000 H   0  0  0  0  0  0  0  0  0  0  0  0
    6.1808    1.5720    0.0000 H   0  0  0  0  0  0  0  0  0  0  0  0
    6.8008    2.1920    0.0000 H   0  0  0  0  0  0  0  0  0  0  0  0
    5.3147    4.3120    0.0000 H   0  0  0  0  0  0  0  0  0  0  0  0
    9.4328   -2.2254    0.0000 H   0  0  0  0  0  0  0  0  0  0  0  0
    9.0343   -2.9156    0.0000 H   0  0  0  0  0  0  0  0  0  0  0  0
    3.9389    5.1014    0.0000 H   0  0  0  0  0  0  0  0  0  0  0  0
    8.2419   -3.9980    0.0000 H   0  0  0  0  0  0  0  0  0  0  0  0
   11.0478   -3.9980    0.0000 H   0  0  0  0  0  0  0  0  0  0  0  0
    8.2419   -5.6180    0.0000 H   0  0  0  0  0  0  0  0  0  0  0  0
   11.0478   -5.6180    0.0000 H   0  0  0  0  0  0  0  0  0  0  0  0
    9.6448   -6.4280    0.0000 H   0  0  0  0  0  0  0  0  0  0  0  0
    2.6597    6.0602    0.0000 H   0  0  0  0  0  0  0  0  0  0  0  0
    1.8411    6.3744    0.0000 H   0  0  0  0  0  0  0  0  0  0  0  0
    1.5269    5.5558    0.0000 H   0  0  0  0  0  0  0  0  0  0  0  0
  1 20  2  0  0  0  0
  2 23  2  0  0  0  0
  3 28  2  0  0  0  0
  4 36  1  0  0  0  0
  4 39  1  0  0  0  0
  5 34  2  0  0  0  0
  6 36  2  0  0  0  0
  7 38  2  0  0  0  0
  8 14  1  0  0  0  0
  8 45  1  0  0  0  0
  9 19  1  0  0  0  0
  9 20  1  0  0  0  0
  9 58  1  0  0  0  0
 18 10  1  1  0  0  0
 10 23  1  0  0  0  0
 10 62  1  0  0  0  0
 21 11  1  1  0  0  0
 11 28  1  0  0  0  0
 11 66  1  0  0  0  0
 26 12  1  1  0  0  0
 12 34  1  0  0  0  0
 12 74  1  0  0  0  0
 35 13  1  6  0  0  0
 13 38  1  0  0  0  0
 13 86  1  0  0  0  0
 14 40  2  0  0  0  0
 15 16  1  6  0  0  0
 15 17  1  0  0  0  0
 15 20  1  0  0  0  0
 15 50  1  0  0  0  0
 16 18  1  0  0  0  0
 16 51  1  0  0  0  0
 16 52  1  0  0  0  0
 17 19  1  0  0  0  0
 17 53  1  0  0  0  0
 17 54  1  0  0  0  0
 18 25  1  0  0  0  0
 18 55  1  0  0  0  0
 19 56  1  0  0  0  0
 19 57  1  0  0  0  0
 21 22  1  0  0  0  0
 21 23  1  0  0  0  0
 21 59  1  0  0  0  0
 22 24  1  0  0  0  0
 22 60  1  0  0  0  0
 22 61  1  0  0  0  0
 24 29  1  0  0  0  0
 24 30  1  0  0  0  0
 24 63  1  0  0  0  0
 25 31  2  0  0  0  0
 25 64  1  0  0  0  0
 26 27  1  0  0  0  0
 26 28  1  0  0  0  0
 26 65  1  0  0  0  0
 27 32  1  0  0  0  0
 27 33  1  0  0  0  0
 27 67  1  0  0  0  0
 29 68  1  0  0  0  0
 29 69  1  0  0  0  0
 29 70  1  0  0  0  0
 30 71  1  0  0  0  0
 30 72  1  0  0  0  0
 30 73  1  0  0  0  0
 31 36  1  0  0  0  0
 31 75  1  0  0  0  0
 32 76  1  0  0  0  0
 32 77  1  0  0  0  0
 32 78  1  0  0  0  0
 33 79  1  0  0  0  0
 33 80  1  0  0  0  0
 33 81  1  0  0  0  0
 34 35  1  0  0  0  0
 35 37  1  0  0  0  0
 35 82  1  0  0  0  0
 37 83  1  0  0  0  0
 37 84  1  0  0  0  0
 37 85  1  0  0  0  0
 38 40  1  0  0  0  0
 39 41  1  0  0  0  0
 39 87  1  0  0  0  0
 39 88  1  0  0  0  0
 40 42  1  0  0  0  0
 41 43  2  0  0  0  0
 41 44  1  0  0  0  0
 42 45  2  0  0  0  0
 42 89  1  0  0  0  0
 43 46  1  0  0  0  0
 43 90  1  0  0  0  0
 44 47  2  0  0  0  0
 44 91  1  0  0  0  0
 45 49  1  0  0  0  0
 46 48  2  0  0  0  0
 46 92  1  0  0  0  0
 47 48  1  0  0  0  0
 47 93  1  0  0  0  0
 48 94  1  0  0  0  0
 49 95  1  0  0  0  0
 49 96  1  0  0  0  0
 49 97  1  0  0  0  0
M  END
> <PUBCHEM_COMPOUND_CID>
6323191

> <PUBCHEM_COMPOUND_CANONICALIZED>
1

> <PUBCHEM_CACTVS_COMPLEXITY>
1190

> <PUBCHEM_CACTVS_HBOND_ACCEPTOR>
9

> <PUBCHEM_CACTVS_HBOND_DONOR>
5

> <PUBCHEM_CACTVS_ROTATABLE_BOND>
18

> <PUBCHEM_CACTVS_SUBSKEYS>
AAADcfB/vAAAAAAAAAAAAAAAAAAAAWLAAAAwAAAAAAAAAAABwAAAHgAUAAAADSzhngYyjJLQBACpA6XyWgCCAAAmIgAomKG+bNoIZjqAtbuWMYhm1hmI6ce/wCAOAAAAAAAAAAAAAAAAAAAAAAAAAAAAAA==

> <PUBCHEM_IUPAC_OPENEYE_NAME>
benzyl (E,4S)-4-[[(2S)-4-methyl-2-[[(2S)-3-methyl-2-[[(2S)-2-[(5-methylisoxazole-3-carbonyl)amino]propanoyl]amino]butanoyl]amino]pentanoyl]amino]-5-[(3S)-2-oxopyrrolidin-3-yl]pent-2-enoate

> <PUBCHEM_IUPAC_CAS_NAME>
(E,4S)-4-[[(2S)-4-methyl-2-[[(2S)-3-methyl-2-[[(2S)-2-[[(5-methyl-3-isoxazolyl)-oxomethyl]amino]-1-oxopropyl]amino]-1-oxobutyl]amino]-1-oxopentyl]amino]-5-[(3S)-2-oxo-3-pyrrolidinyl]-2-pentenoic acid (phenylmethyl) ester

> <PUBCHEM_IUPAC_NAME_MARKUP>
benzyl (<I>E</I>,4<I>S</I>)-4-[[(2<I>S</I>)-4-methyl-2-[[(2<I>S</I>)-3-methyl-2-[[(2<I>S</I>)-2-[(5-methyl-1,2-oxazole-3-carbonyl)amino]propanoyl]amino]butanoyl]amino]pentanoyl]amino]-5-[(3<I>S</I>)-2-oxopyrrolidin-3-yl]pent-2-enoate

> <PUBCHEM_IUPAC_NAME>
benzyl (E,4S)-4-[[(2S)-4-methyl-2-[[(2S)-3-methyl-2-[[(2S)-2-[(5-methyl-1,2-oxazole-3-carbonyl)amino]propanoyl]amino]butanoyl]amino]pentanoyl]amino]-5-[(3S)-2-oxopyrrolidin-3-yl]pent-2-enoate

> <PUBCHEM_IUPAC_SYSTEMATIC_NAME>
(phenylmethyl) (E,4S)-4-[[(2S)-4-methyl-2-[[(2S)-3-methyl-2-[[(2S)-2-[(5-methyl-1,2-oxazol-3-yl)carbonylamino]propanoyl]amino]butanoyl]amino]pentanoyl]amino]-5-[(3S)-2-oxidanylidenepyrrolidin-3-yl]pent-2-enoate

> <PUBCHEM_IUPAC_TRADITIONAL_NAME>
(E,4S)-5-[(3S)-2-ketopyrrolidin-3-yl]-4-[[(2S)-4-methyl-2-[[(2S)-3-methyl-2-[[(2S)-2-[(5-methylisoxazole-3-carbonyl)amino]propanoyl]amino]butanoyl]amino]pentanoyl]amino]pent-2-enoic acid benzyl ester

> <PUBCHEM_IUPAC_INCHI>
InChI=1S/C35H48N6O8/c1-20(2)16-27(39-35(47)30(21(3)4)40-31(43)23(6)37-34(46)28-17-22(5)49-41-28)33(45)38-26(18-25-14-15-36-32(25)44)12-13-29(42)48-19-24-10-8-7-9-11-24/h7-13,17,20-21,23,25-27,30H,14-16,18-19H2,1-6H3,(H,36,44)(H,37,46)(H,38,45)(H,39,47)(H,40,43)/b13-12+/t23-,25-,26+,27-,30-/m0/s1

> <PUBCHEM_IUPAC_INCHIKEY>
IDBWWEGDLCFCTD-VNEMRZQUSA-N

> <PUBCHEM_XLOGP3_AA>
3.4

> <PUBCHEM_EXACT_MASS>
680.353363

> <PUBCHEM_MOLECULAR_FORMULA>
C35H48N6O8

> <PUBCHEM_MOLECULAR_WEIGHT>
680.8

> <PUBCHEM_OPENEYE_CAN_SMILES>
CC1=CC(=NO1)C(=O)NC(C)C(=O)NC(C(C)C)C(=O)NC(CC(C)C)C(=O)NC(CC2CCNC2=O)C=CC(=O)OCC3=CC=CC=C3

> <PUBCHEM_OPENEYE_ISO_SMILES>
CC1=CC(=NO1)C(=O)N[C@@H](C)C(=O)N[C@@H](C(C)C)C(=O)N[C@@H](CC(C)C)C(=O)N[C@@H](C[C@@H]2CCNC2=O)/C=C/C(=O)OCC3=CC=CC=C3

> <PUBCHEM_CACTVS_TPSA>
198

> <PUBCHEM_MONOISOTOPIC_WEIGHT>
680.353363

> <PUBCHEM_TOTAL_CHARGE>
0

> <PUBCHEM_HEAVY_ATOM_COUNT>
49

> <PUBCHEM_ATOM_DEF_STEREO_COUNT>
5

> <PUBCHEM_ATOM_UDEF_STEREO_COUNT>
0

> <PUBCHEM_BOND_DEF_STEREO_COUNT>
1

> <PUBCHEM_BOND_UDEF_STEREO_COUNT>
0

> <PUBCHEM_ISOTOPIC_ATOM_COUNT>
0

> <PUBCHEM_COMPONENT_COUNT>
1

> <PUBCHEM_CACTVS_TAUTO_COUNT>
-1

> <PUBCHEM_COORDINATE_TYPE>
1
5
255

> <PUBCHEM_BONDANNOTATIONS>
18  10  5
21  11  5
26  12  5
35  13  6
14  40  8
15  16  6
40  42  8
41  43  8
41  44  8
42  45  8
43  46  8
44  47  8
46  48  8
47  48  8
8  14  8
8  45  8

$$$$
6323208
  -OEChem-02212016592D

 84 86  0     1  0  0  0  0  0999 V2000
    4.6261   -5.2702    0.0000 F   0  0  0  0  0  0  0  0  0  0  0  0
    2.0000    3.5086    0.0000 O   0  0  0  0  0  0  0  0  0  0  0  0
    6.3582    0.7298    0.0000 O   0  0  0  0  0  0  0  0  0  0  0  0
    7.2242    0.2298    0.0000 O   0  0  0  0  0  0  0  0  0  0  0  0
    7.2242    3.2298    0.0000 O   0  0  0  0  0  0  0  0  0  0  0  0
    6.3582    4.7298    0.0000 O   0  0  0  0  0  0  0  0  0  0  0  0
    9.8222   -2.2702    0.0000 O   0  0  0  0  0  0  0  0  0  0  0  0
   12.2710   -0.4338    0.0000 O   0  0  0  0  0  0  0  0  0  0  0  0
    4.6261    0.7298    0.0000 N   0  0  0  0  0  0  0  0  0  0  0  0
    3.2601    4.7686    0.0000 N   0  0  0  0  0  0  0  0  0  0  0  0
    8.9562   -0.7702    0.0000 N   0  0  0  0  0  0  0  0  0  0  0  0
   11.6018   -1.1770    0.0000 N   0  0  0  0  0  0  0  0  0  0  0  0
    3.7601    3.2298    0.0000 C   0  0  2  0  0  0  0  0  0  0  0  0
    3.7601    2.2298    0.0000 C   0  0  0  0  0  0  0  0  0  0  0  0
    4.6261    1.7298    0.0000 C   0  0  1  0  0  0  0  0  0  0  0  0
    4.5691    3.8176    0.0000 C   0  0  0  0  0  0  0  0  0  0  0  0
    4.2601    4.7686    0.0000 C   0  0  0  0  0  0  0  0  0  0  0  0
    5.4921    2.2298    0.0000 C   0  0  0  0  0  0  0  0  0  0  0  0
    2.9511    3.8176    0.0000 C   0  0  0  0  0  0  0  0  0  0  0  0
    5.4921   -0.7702    0.0000 C   0  0  1  0  0  0  0  0  0  0  0  0
    5.4921    0.2298    0.0000 C   0  0  0  0  0  0  0  0  0  0  0  0
    6.3582   -1.2702    0.0000 C   0  0  0  0  0  0  0  0  0  0  0  0
    5.4921    3.2298    0.0000 C   0  0  0  0  0  0  0  0  0  0  0  0
    4.6261   -1.2702    0.0000 C   0  0  0  0  0  0  0  0  0  0  0  0
    8.0902   -1.2702    0.0000 C   0  0  2  0  0  0  0  0  0  0  0  0
    7.2242   -0.7702    0.0000 C   0  0  0  0  0  0  0  0  0  0  0  0
    8.0902   -2.2702    0.0000 C   0  0  0  0  0  0  0  0  0  0  0  0
    4.6261   -2.2702    0.0000 C   0  0  0  0  0  0  0  0  0  0  0  0
    6.3582    3.7298    0.0000 C   0  0  0  0  0  0  0  0  0  0  0  0
    8.9562   -2.7702    0.0000 C   0  0  0  0  0  0  0  0  0  0  0  0
    7.2242   -2.7702    0.0000 C   0  0  0  0  0  0  0  0  0  0  0  0
    5.4921   -2.7702    0.0000 C   0  0  0  0  0  0  0  0  0  0  0  0
    3.7601   -2.7702    0.0000 C   0  0  0  0  0  0  0  0  0  0  0  0
    9.8222   -1.2702    0.0000 C   0  0  0  0  0  0  0  0  0  0  0  0
    5.4921   -3.7702    0.0000 C   0  0  0  0  0  0  0  0  0  0  0  0
    3.7601   -3.7702    0.0000 C   0  0  0  0  0  0  0  0  0  0  0  0
    4.6261   -4.2702    0.0000 C   0  0  0  0  0  0  0  0  0  0  0  0
    8.0902    3.7298    0.0000 C   0  0  0  0  0  0  0  0  0  0  0  0
   10.6883   -0.7702    0.0000 C   0  0  0  0  0  0  0  0  0  0  0  0
    8.9562    3.2298    0.0000 C   0  0  0  0  0  0  0  0  0  0  0  0
   10.7928    0.2243    0.0000 C   0  0  0  0  0  0  0  0  0  0  0  0
   11.7710    0.4322    0.0000 C   0  0  0  0  0  0  0  0  0  0  0  0
   12.1777    1.3458    0.0000 C   0  0  0  0  0  0  0  0  0  0  0  0
    4.3125    2.9483    0.0000 H   0  0  0  0  0  0  0  0  0  0  0  0
    3.1495    2.3374    0.0000 H   0  0  0  0  0  0  0  0  0  0  0  0
    3.5480    1.6472    0.0000 H   0  0  0  0  0  0  0  0  0  0  0  0
    5.1630    1.4198    0.0000 H   0  0  0  0  0  0  0  0  0  0  0  0
    4.8791    3.2806    0.0000 H   0  0  0  0  0  0  0  0  0  0  0  0
    5.1355    4.0698    0.0000 H   0  0  0  0  0  0  0  0  0  0  0  0
    4.8665    4.8975    0.0000 H   0  0  0  0  0  0  0  0  0  0  0  0
    4.1953    5.3852    0.0000 H   0  0  0  0  0  0  0  0  0  0  0  0
    5.7042    1.6472    0.0000 H   0  0  0  0  0  0  0  0  0  0  0  0
    6.1027    2.3374    0.0000 H   0  0  0  0  0  0  0  0  0  0  0  0
    4.0892    0.4198    0.0000 H   0  0  0  0  0  0  0  0  0  0  0  0
    6.0291   -0.4602    0.0000 H   0  0  0  0  0  0  0  0  0  0  0  0
    2.8956    5.2702    0.0000 H   0  0  0  0  0  0  0  0  0  0  0  0
    5.9596   -1.7452    0.0000 H   0  0  0  0  0  0  0  0  0  0  0  0
    6.7567   -1.7452    0.0000 H   0  0  0  0  0  0  0  0  0  0  0  0
    5.2801    3.8124    0.0000 H   0  0  0  0  0  0  0  0  0  0  0  0
    4.8815    3.1221    0.0000 H   0  0  0  0  0  0  0  0  0  0  0  0
    4.4140   -0.6876    0.0000 H   0  0  0  0  0  0  0  0  0  0  0  0
    4.0155   -1.3779    0.0000 H   0  0  0  0  0  0  0  0  0  0  0  0
    8.0902   -0.6502    0.0000 H   0  0  0  0  0  0  0  0  0  0  0  0
    8.0902   -2.8902    0.0000 H   0  0  0  0  0  0  0  0  0  0  0  0
    8.9562   -0.1502    0.0000 H   0  0  0  0  0  0  0  0  0  0  0  0
    8.6462   -3.3072    0.0000 H   0  0  0  0  0  0  0  0  0  0  0  0
    9.4932   -3.0802    0.0000 H   0  0  0  0  0  0  0  0  0  0  0  0
    9.2662   -2.2333    0.0000 H   0  0  0  0  0  0  0  0  0  0  0  0
    6.9142   -2.2333    0.0000 H   0  0  0  0  0  0  0  0  0  0  0  0
    6.6872   -3.0802    0.0000 H   0  0  0  0  0  0  0  0  0  0  0  0
    7.5342   -3.3072    0.0000 H   0  0  0  0  0  0  0  0  0  0  0  0
    6.0291   -2.4602    0.0000 H   0  0  0  0  0  0  0  0  0  0  0  0
    3.2231   -2.4602    0.0000 H   0  0  0  0  0  0  0  0  0  0  0  0
    6.0291   -4.0802    0.0000 H   0  0  0  0  0  0  0  0  0  0  0  0
    3.2231   -4.0802    0.0000 H   0  0  0  0  0  0  0  0  0  0  0  0
    8.4887    4.2047    0.0000 H   0  0  0  0  0  0  0  0  0  0  0  0
    7.6917    4.2047    0.0000 H   0  0  0  0  0  0  0  0  0  0  0  0
    8.6462    2.6928    0.0000 H   0  0  0  0  0  0  0  0  0  0  0  0
    9.4932    2.9198    0.0000 H   0  0  0  0  0  0  0  0  0  0  0  0
    9.2662    3.7667    0.0000 H   0  0  0  0  0  0  0  0  0  0  0  0
   10.3321    0.6392    0.0000 H   0  0  0  0  0  0  0  0  0  0  0  0
   12.7441    1.0936    0.0000 H   0  0  0  0  0  0  0  0  0  0  0  0
   12.4299    1.9122    0.0000 H   0  0  0  0  0  0  0  0  0  0  0  0
   11.6113    1.5979    0.0000 H   0  0  0  0  0  0  0  0  0  0  0  0
  1 37  1  0  0  0  0
  2 19  2  0  0  0  0
  3 21  2  0  0  0  0
  4 26  2  0  0  0  0
  5 29  1  0  0  0  0
  5 38  1  0  0  0  0
  6 29  2  0  0  0  0
  7 34  2  0  0  0  0
  8 12  1  0  0  0  0
  8 42  1  0  0  0  0
 15  9  1  1  0  0  0
  9 21  1  0  0  0  0
  9 54  1  0  0  0  0
 10 17  1  0  0  0  0
 10 19  1  0  0  0  0
 10 56  1  0  0  0  0
 25 11  1  1  0  0  0
 11 34  1  0  0  0  0
 11 65  1  0  0  0  0
 12 39  2  0  0  0  0
 13 14  1  1  0  0  0
 13 16  1  0  0  0  0
 13 19  1  0  0  0  0
 13 44  1  0  0  0  0
 14 15  1  0  0  0  0
 14 45  1  0  0  0  0
 14 46  1  0  0  0  0
 15 18  1  0  0  0  0
 15 47  1  0  0  0  0
 16 17  1  0  0  0  0
 16 48  1  0  0  0  0
 16 49  1  0  0  0  0
 17 50  1  0  0  0  0
 17 51  1  0  0  0  0
 18 23  1  0  0  0  0
 18 52  1  0  0  0  0
 18 53  1  0  0  0  0
 20 21  1  0  0  0  0
 20 22  1  1  0  0  0
 20 24  1  0  0  0  0
 20 55  1  0  0  0  0
 22 26  1  0  0  0  0
 22 57  1  0  0  0  0
 22 58  1  0  0  0  0
 23 29  1  0  0  0  0
 23 59  1  0  0  0  0
 23 60  1  0  0  0  0
 24 28  1  0  0  0  0
 24 61  1  0  0  0  0
 24 62  1  0  0  0  0
 25 26  1  0  0  0  0
 25 27  1  0  0  0  0
 25 63  1  0  0  0  0
 27 30  1  0  0  0  0
 27 31  1  0  0  0  0
 27 64  1  0  0  0  0
 28 32  2  0  0  0  0
 28 33  1  0  0  0  0
 30 66  1  0  0  0  0
 30 67  1  0  0  0  0
 30 68  1  0  0  0  0
 31 69  1  0  0  0  0
 31 70  1  0  0  0  0
 31 71  1  0  0  0  0
 32 35  1  0  0  0  0
 32 72  1  0  0  0  0
 33 36  2  0  0  0  0
 33 73  1  0  0  0  0
 34 39  1  0  0  0  0
 35 37  2  0  0  0  0
 35 74  1  0  0  0  0
 36 37  1  0  0  0  0
 36 75  1  0  0  0  0
 38 40  1  0  0  0  0
 38 76  1  0  0  0  0
 38 77  1  0  0  0  0
 39 41  1  0  0  0  0
 40 78  1  0  0  0  0
 40 79  1  0  0  0  0
 40 80  1  0  0  0  0
 41 42  2  0  0  0  0
 41 81  1  0  0  0  0
 42 43  1  0  0  0  0
 43 82  1  0  0  0  0
 43 83  1  0  0  0  0
 43 84  1  0  0  0  0
M  END
> <PUBCHEM_COMPOUND_CID>
6323208

> <PUBCHEM_COMPOUND_CANONICALIZED>
1

> <PUBCHEM_CACTVS_COMPLEXITY>
972

> <PUBCHEM_CACTVS_HBOND_ACCEPTOR>
9

> <PUBCHEM_CACTVS_HBOND_DONOR>
3

> <PUBCHEM_CACTVS_ROTATABLE_BOND>
17

> <PUBCHEM_CACTVS_SUBSKEYS>
AAADcfB7uQAAAAAAAAAAAAAAAAAAAWLAAAAwAAAAAAAAAAABwAAAHwAUAAAADSzhng4yjJLQBACpA6XyWgCCAAAmIgAomKG+bNoIZjqAlbOWMYhmlhiIyce/yeCeAAAAAAAAAAAAAAAAAAAAAAAAAAAAAA==

> <PUBCHEM_IUPAC_OPENEYE_NAME>
ethyl (4R)-4-[[(2R,5S)-2-[(4-fluorophenyl)methyl]-6-methyl-5-[(5-methylisoxazole-3-carbonyl)amino]-4-oxo-heptanoyl]amino]-5-[(3S)-2-oxopyrrolidin-3-yl]pentanoate

> <PUBCHEM_IUPAC_CAS_NAME>
(4R)-4-[[(2R,5S)-2-[(4-fluorophenyl)methyl]-6-methyl-5-[[(5-methyl-3-isoxazolyl)-oxomethyl]amino]-1,4-dioxoheptyl]amino]-5-[(3S)-2-oxo-3-pyrrolidinyl]pentanoic acid ethyl ester

> <PUBCHEM_IUPAC_NAME_MARKUP>
ethyl (4<I>R</I>)-4-[[(2<I>R</I>,5<I>S</I>)-2-[(4-fluorophenyl)methyl]-6-methyl-5-[(5-methyl-1,2-oxazole-3-carbonyl)amino]-4-oxoheptanoyl]amino]-5-[(3<I>S</I>)-2-oxopyrrolidin-3-yl]pentanoate

> <PUBCHEM_IUPAC_NAME>
ethyl (4R)-4-[[(2R,5S)-2-[(4-fluorophenyl)methyl]-6-methyl-5-[(5-methyl-1,2-oxazole-3-carbonyl)amino]-4-oxoheptanoyl]amino]-5-[(3S)-2-oxopyrrolidin-3-yl]pentanoate

> <PUBCHEM_IUPAC_SYSTEMATIC_NAME>
ethyl (4R)-4-[[(2R,5S)-2-[(4-fluorophenyl)methyl]-6-methyl-5-[(5-methyl-1,2-oxazol-3-yl)carbonylamino]-4-oxidanylidene-heptanoyl]amino]-5-[(3S)-2-oxidanylidenepyrrolidin-3-yl]pentanoate

> <PUBCHEM_IUPAC_TRADITIONAL_NAME>
(4R)-4-[[(2R,5S)-2-(4-fluorobenzyl)-4-keto-6-methyl-5-[(5-methylisoxazole-3-carbonyl)amino]heptanoyl]amino]-5-[(3S)-2-ketopyrrolidin-3-yl]valeric acid ethyl ester

> <PUBCHEM_IUPAC_INCHI>
InChI=1S/C31H41FN4O7/c1-5-42-27(38)11-10-24(16-21-12-13-33-29(21)39)34-30(40)22(15-20-6-8-23(32)9-7-20)17-26(37)28(18(2)3)35-31(41)25-14-19(4)43-36-25/h6-9,14,18,21-22,24,28H,5,10-13,15-17H2,1-4H3,(H,33,39)(H,34,40)(H,35,41)/t21-,22+,24+,28-/m0/s1

> <PUBCHEM_IUPAC_INCHIKEY>
LMIUALQNZXJHOG-IFILWLFVSA-N

> <PUBCHEM_XLOGP3_AA>
3.2

> <PUBCHEM_EXACT_MASS>
600.295928

> <PUBCHEM_MOLECULAR_FORMULA>
C31H41FN4O7

> <PUBCHEM_MOLECULAR_WEIGHT>
600.7

> <PUBCHEM_OPENEYE_CAN_SMILES>
CCOC(=O)CCC(CC1CCNC1=O)NC(=O)C(CC2=CC=C(C=C2)F)CC(=O)C(C(C)C)NC(=O)C3=NOC(=C3)C

> <PUBCHEM_OPENEYE_ISO_SMILES>
CCOC(=O)CC[C@H](C[C@@H]1CCNC1=O)NC(=O)[C@H](CC2=CC=C(C=C2)F)CC(=O)[C@H](C(C)C)NC(=O)C3=NOC(=C3)C

> <PUBCHEM_CACTVS_TPSA>
157

> <PUBCHEM_MONOISOTOPIC_WEIGHT>
600.295928

> <PUBCHEM_TOTAL_CHARGE>
0

> <PUBCHEM_HEAVY_ATOM_COUNT>
43

> <PUBCHEM_ATOM_DEF_STEREO_COUNT>
4

> <PUBCHEM_ATOM_UDEF_STEREO_COUNT>
0

> <PUBCHEM_BOND_DEF_STEREO_COUNT>
0

> <PUBCHEM_BOND_UDEF_STEREO_COUNT>
0

> <PUBCHEM_ISOTOPIC_ATOM_COUNT>
0

> <PUBCHEM_COMPONENT_COUNT>
1

> <PUBCHEM_CACTVS_TAUTO_COUNT>
-1

> <PUBCHEM_COORDINATE_TYPE>
1
5
255

> <PUBCHEM_BONDANNOTATIONS>
25  11  5
12  39  8
13  14  5
20  22  5
28  32  8
28  33  8
32  35  8
33  36  8
35  37  8
36  37  8
39  41  8
41  42  8
8  12  8
8  42  8
15  9  5

$$$$
6440352
  -OEChem-02212016592D

 82 84  0     1  0  0  0  0  0999 V2000
    5.4641   -5.2702    0.0000 F   0  0  0  0  0  0  0  0  0  0  0  0
    8.0902    3.5086    0.0000 O   0  0  0  0  0  0  0  0  0  0  0  0
    7.1962    0.7298    0.0000 O   0  0  0  0  0  0  0  0  0  0  0  0
    8.0622    0.2298    0.0000 O   0  0  0  0  0  0  0  0  0  0  0  0
    2.8660    3.2298    0.0000 O   0  0  0  0  0  0  0  0  0  0  0  0
   10.6603   -2.2702    0.0000 O   0  0  0  0  0  0  0  0  0  0  0  0
    2.0000    1.7298    0.0000 O   0  0  0  0  0  0  0  0  0  0  0  0
   12.6090    0.4322    0.0000 O   0  0  0  0  0  0  0  0  0  0  0  0
    6.8301    4.7686    0.0000 N   0  0  0  0  0  0  0  0  0  0  0  0
    5.4641    0.7298    0.0000 N   0  0  0  0  0  0  0  0  0  0  0  0
    9.7942   -0.7702    0.0000 N   0  0  0  0  0  0  0  0  0  0  0  0
   11.6308    0.2243    0.0000 N   0  0  0  0  0  0  0  0  0  0  0  0
    6.3301    3.2298    0.0000 C   0  0  2  0  0  0  0  0  0  0  0  0
    6.3301    2.2298    0.0000 C   0  0  0  0  0  0  0  0  0  0  0  0
    5.5211    3.8176    0.0000 C   0  0  0  0  0  0  0  0  0  0  0  0
    5.4641    1.7298    0.0000 C   0  0  1  0  0  0  0  0  0  0  0  0
    5.8301    4.7686    0.0000 C   0  0  0  0  0  0  0  0  0  0  0  0
    7.1391    3.8176    0.0000 C   0  0  0  0  0  0  0  0  0  0  0  0
    6.3301   -0.7702    0.0000 C   0  0  2  0  0  0  0  0  0  0  0  0
    7.1962   -1.2702    0.0000 C   0  0  0  0  0  0  0  0  0  0  0  0
    6.3301    0.2298    0.0000 C   0  0  0  0  0  0  0  0  0  0  0  0
    8.9282   -1.2702    0.0000 C   0  0  1  0  0  0  0  0  0  0  0  0
    5.4641   -1.2702    0.0000 C   0  0  0  0  0  0  0  0  0  0  0  0
    8.9282   -2.2702    0.0000 C   0  0  0  0  0  0  0  0  0  0  0  0
    8.0622   -0.7702    0.0000 C   0  0  0  0  0  0  0  0  0  0  0  0
    4.5981    2.2298    0.0000 C   0  0  0  0  0  0  0  0  0  0  0  0
    5.4641   -2.2702    0.0000 C   0  0  0  0  0  0  0  0  0  0  0  0
    9.7942   -2.7702    0.0000 C   0  0  0  0  0  0  0  0  0  0  0  0
    8.0622   -2.7702    0.0000 C   0  0  0  0  0  0  0  0  0  0  0  0
    3.7320    1.7298    0.0000 C   0  0  0  0  0  0  0  0  0  0  0  0
    6.3301   -2.7702    0.0000 C   0  0  0  0  0  0  0  0  0  0  0  0
    4.5981   -2.7702    0.0000 C   0  0  0  0  0  0  0  0  0  0  0  0
   10.6603   -1.2702    0.0000 C   0  0  0  0  0  0  0  0  0  0  0  0
    2.8660    2.2298    0.0000 C   0  0  0  0  0  0  0  0  0  0  0  0
    6.3301   -3.7702    0.0000 C   0  0  0  0  0  0  0  0  0  0  0  0
    4.5981   -3.7702    0.0000 C   0  0  0  0  0  0  0  0  0  0  0  0
   11.5263   -0.7702    0.0000 C   0  0  0  0  0  0  0  0  0  0  0  0
    5.4641   -4.2702    0.0000 C   0  0  0  0  0  0  0  0  0  0  0  0
   12.4398   -1.1770    0.0000 C   0  0  0  0  0  0  0  0  0  0  0  0
   13.1090   -0.4338    0.0000 C   0  0  0  0  0  0  0  0  0  0  0  0
    2.0000    3.7298    0.0000 C   0  0  0  0  0  0  0  0  0  0  0  0
   14.1035   -0.5383    0.0000 C   0  0  0  0  0  0  0  0  0  0  0  0
    2.0000    4.7298    0.0000 C   0  0  0  0  0  0  0  0  0  0  0  0
    6.8826    2.9483    0.0000 H   0  0  0  0  0  0  0  0  0  0  0  0
    6.5422    1.6472    0.0000 H   0  0  0  0  0  0  0  0  0  0  0  0
    6.9407    2.3374    0.0000 H   0  0  0  0  0  0  0  0  0  0  0  0
    4.9547    4.0698    0.0000 H   0  0  0  0  0  0  0  0  0  0  0  0
    5.2111    3.2806    0.0000 H   0  0  0  0  0  0  0  0  0  0  0  0
    6.0010    1.4198    0.0000 H   0  0  0  0  0  0  0  0  0  0  0  0
    5.8949    5.3852    0.0000 H   0  0  0  0  0  0  0  0  0  0  0  0
    5.2237    4.8975    0.0000 H   0  0  0  0  0  0  0  0  0  0  0  0
    6.8671   -0.4602    0.0000 H   0  0  0  0  0  0  0  0  0  0  0  0
    7.1946    5.2702    0.0000 H   0  0  0  0  0  0  0  0  0  0  0  0
    6.7976   -1.7452    0.0000 H   0  0  0  0  0  0  0  0  0  0  0  0
    7.5947   -1.7452    0.0000 H   0  0  0  0  0  0  0  0  0  0  0  0
    4.9272    0.4198    0.0000 H   0  0  0  0  0  0  0  0  0  0  0  0
    8.9282   -0.6502    0.0000 H   0  0  0  0  0  0  0  0  0  0  0  0
    5.2520   -0.6876    0.0000 H   0  0  0  0  0  0  0  0  0  0  0  0
    4.8535   -1.3779    0.0000 H   0  0  0  0  0  0  0  0  0  0  0  0
    9.4651   -1.9602    0.0000 H   0  0  0  0  0  0  0  0  0  0  0  0
    4.5981    2.8498    0.0000 H   0  0  0  0  0  0  0  0  0  0  0  0
    9.7942   -0.1502    0.0000 H   0  0  0  0  0  0  0  0  0  0  0  0
    9.4842   -3.3072    0.0000 H   0  0  0  0  0  0  0  0  0  0  0  0
   10.3312   -3.0802    0.0000 H   0  0  0  0  0  0  0  0  0  0  0  0
   10.1042   -2.2333    0.0000 H   0  0  0  0  0  0  0  0  0  0  0  0
    7.7522   -2.2333    0.0000 H   0  0  0  0  0  0  0  0  0  0  0  0
    7.5252   -3.0802    0.0000 H   0  0  0  0  0  0  0  0  0  0  0  0
    8.3722   -3.3072    0.0000 H   0  0  0  0  0  0  0  0  0  0  0  0
    3.7320    1.1098    0.0000 H   0  0  0  0  0  0  0  0  0  0  0  0
    6.8671   -2.4602    0.0000 H   0  0  0  0  0  0  0  0  0  0  0  0
    4.0611   -2.4602    0.0000 H   0  0  0  0  0  0  0  0  0  0  0  0
    6.8671   -4.0802    0.0000 H   0  0  0  0  0  0  0  0  0  0  0  0
    4.0611   -4.0802    0.0000 H   0  0  0  0  0  0  0  0  0  0  0  0
   12.5687   -1.7834    0.0000 H   0  0  0  0  0  0  0  0  0  0  0  0
    1.3894    3.8374    0.0000 H   0  0  0  0  0  0  0  0  0  0  0  0
    1.7880    3.1472    0.0000 H   0  0  0  0  0  0  0  0  0  0  0  0
   14.0387   -1.1549    0.0000 H   0  0  0  0  0  0  0  0  0  0  0  0
   14.7201   -0.6031    0.0000 H   0  0  0  0  0  0  0  0  0  0  0  0
   14.1683    0.0783    0.0000 H   0  0  0  0  0  0  0  0  0  0  0  0
    2.6200    4.7298    0.0000 H   0  0  0  0  0  0  0  0  0  0  0  0
    2.0000    5.3498    0.0000 H   0  0  0  0  0  0  0  0  0  0  0  0
    1.3800    4.7298    0.0000 H   0  0  0  0  0  0  0  0  0  0  0  0
  1 38  1  0  0  0  0
  2 18  2  0  0  0  0
  3 21  2  0  0  0  0
  4 25  2  0  0  0  0
  5 34  1  0  0  0  0
  5 41  1  0  0  0  0
  6 33  2  0  0  0  0
  7 34  2  0  0  0  0
  8 12  1  0  0  0  0
  8 40  1  0  0  0  0
  9 17  1  0  0  0  0
  9 18  1  0  0  0  0
  9 53  1  0  0  0  0
 16 10  1  6  0  0  0
 10 21  1  0  0  0  0
 10 56  1  0  0  0  0
 22 11  1  1  0  0  0
 11 33  1  0  0  0  0
 11 62  1  0  0  0  0
 12 37  2  0  0  0  0
 13 14  1  6  0  0  0
 13 15  1  0  0  0  0
 13 18  1  0  0  0  0
 13 44  1  0  0  0  0
 14 16  1  0  0  0  0
 14 45  1  0  0  0  0
 14 46  1  0  0  0  0
 15 17  1  0  0  0  0
 15 47  1  0  0  0  0
 15 48  1  0  0  0  0
 16 26  1  0  0  0  0
 16 49  1  0  0  0  0
 17 50  1  0  0  0  0
 17 51  1  0  0  0  0
 19 20  1  1  0  0  0
 19 21  1  0  0  0  0
 19 23  1  0  0  0  0
 19 52  1  0  0  0  0
 20 25  1  0  0  0  0
 20 54  1  0  0  0  0
 20 55  1  0  0  0  0
 22 24  1  0  0  0  0
 22 25  1  0  0  0  0
 22 57  1  0  0  0  0
 23 27  1  0  0  0  0
 23 58  1  0  0  0  0
 23 59  1  0  0  0  0
 24 28  1  0  0  0  0
 24 29  1  0  0  0  0
 24 60  1  0  0  0  0
 26 30  2  0  0  0  0
 26 61  1  0  0  0  0
 27 31  2  0  0  0  0
 27 32  1  0  0  0  0
 28 63  1  0  0  0  0
 28 64  1  0  0  0  0
 28 65  1  0  0  0  0
 29 66  1  0  0  0  0
 29 67  1  0  0  0  0
 29 68  1  0  0  0  0
 30 34  1  0  0  0  0
 30 69  1  0  0  0  0
 31 35  1  0  0  0  0
 31 70  1  0  0  0  0
 32 36  2  0  0  0  0
 32 71  1  0  0  0  0
 33 37  1  0  0  0  0
 35 38  2  0  0  0  0
 35 72  1  0  0  0  0
 36 38  1  0  0  0  0
 36 73  1  0  0  0  0
 37 39  1  0  0  0  0
 39 40  2  0  0  0  0
 39 74  1  0  0  0  0
 40 42  1  0  0  0  0
 41 43  1  0  0  0  0
 41 75  1  0  0  0  0
 41 76  1  0  0  0  0
 42 77  1  0  0  0  0
 42 78  1  0  0  0  0
 42 79  1  0  0  0  0
 43 80  1  0  0  0  0
 43 81  1  0  0  0  0
 43 82  1  0  0  0  0
M  END
> <PUBCHEM_COMPOUND_CID>
6440352

> <PUBCHEM_COMPOUND_CANONICALIZED>
1

> <PUBCHEM_CACTVS_COMPLEXITY>
1010

> <PUBCHEM_CACTVS_HBOND_ACCEPTOR>
9

> <PUBCHEM_CACTVS_HBOND_DONOR>
3

> <PUBCHEM_CACTVS_ROTATABLE_BOND>
16

> <PUBCHEM_CACTVS_SUBSKEYS>
AAADcfB7uQAAAAAAAAAAAAAAAAAAAWLAAAAwAAAAAAAAAAABwAAAHwAUAAAADSzhng4yjJLQBACpA6XyWgCCAAAmIgAomKG+bNoIZjqAtbOWMYhmlhiI6cc/icCeAAAAAAAAAAAAAAAAAAAAAAAAAAAAAA==

> <PUBCHEM_IUPAC_OPENEYE_NAME>
ethyl (E,4S)-4-[[(2R,5S)-2-[(4-fluorophenyl)methyl]-6-methyl-5-[(5-methylisoxazole-3-carbonyl)amino]-4-oxo-heptanoyl]amino]-5-[(3S)-2-oxopyrrolidin-3-yl]pent-2-enoate

> <PUBCHEM_IUPAC_CAS_NAME>
(E,4S)-4-[[(2R,5S)-2-[(4-fluorophenyl)methyl]-6-methyl-5-[[(5-methyl-3-isoxazolyl)-oxomethyl]amino]-1,4-dioxoheptyl]amino]-5-[(3S)-2-oxo-3-pyrrolidinyl]-2-pentenoic acid ethyl ester

> <PUBCHEM_IUPAC_NAME_MARKUP>
ethyl (<I>E</I>,4<I>S</I>)-4-[[(2<I>R</I>,5<I>S</I>)-2-[(4-fluorophenyl)methyl]-6-methyl-5-[(5-methyl-1,2-oxazole-3-carbonyl)amino]-4-oxoheptanoyl]amino]-5-[(3<I>S</I>)-2-oxopyrrolidin-3-yl]pent-2-enoate

> <PUBCHEM_IUPAC_NAME>
ethyl (E,4S)-4-[[(2R,5S)-2-[(4-fluorophenyl)methyl]-6-methyl-5-[(5-methyl-1,2-oxazole-3-carbonyl)amino]-4-oxoheptanoyl]amino]-5-[(3S)-2-oxopyrrolidin-3-yl]pent-2-enoate

> <PUBCHEM_IUPAC_SYSTEMATIC_NAME>
ethyl (E,4S)-4-[[(2R,5S)-2-[(4-fluorophenyl)methyl]-6-methyl-5-[(5-methyl-1,2-oxazol-3-yl)carbonylamino]-4-oxidanylidene-heptanoyl]amino]-5-[(3S)-2-oxidanylidenepyrrolidin-3-yl]pent-2-enoate

> <PUBCHEM_IUPAC_TRADITIONAL_NAME>
(E,4S)-4-[[(2R,5S)-2-(4-fluorobenzyl)-4-keto-6-methyl-5-[(5-methylisoxazole-3-carbonyl)amino]heptanoyl]amino]-5-[(3S)-2-ketopyrrolidin-3-yl]pent-2-enoic acid ethyl ester

> <PUBCHEM_IUPAC_INCHI>
InChI=1S/C31H39FN4O7/c1-5-42-27(38)11-10-24(16-21-12-13-33-29(21)39)34-30(40)22(15-20-6-8-23(32)9-7-20)17-26(37)28(18(2)3)35-31(41)25-14-19(4)43-36-25/h6-11,14,18,21-22,24,28H,5,12-13,15-17H2,1-4H3,(H,33,39)(H,34,40)(H,35,41)/b11-10+/t21-,22+,24+,28-/m0/s1

> <PUBCHEM_IUPAC_INCHIKEY>
CAYJBRBGZBCZKO-BHGBQCOSSA-N

> <PUBCHEM_XLOGP3_AA>
3.1

> <PUBCHEM_EXACT_MASS>
598.280278

> <PUBCHEM_MOLECULAR_FORMULA>
C31H39FN4O7

> <PUBCHEM_MOLECULAR_WEIGHT>
598.7

> <PUBCHEM_OPENEYE_CAN_SMILES>
CCOC(=O)C=CC(CC1CCNC1=O)NC(=O)C(CC2=CC=C(C=C2)F)CC(=O)C(C(C)C)NC(=O)C3=NOC(=C3)C

> <PUBCHEM_OPENEYE_ISO_SMILES>
CCOC(=O)/C=C/[C@H](C[C@@H]1CCNC1=O)NC(=O)[C@H](CC2=CC=C(C=C2)F)CC(=O)[C@H](C(C)C)NC(=O)C3=NOC(=C3)C

> <PUBCHEM_CACTVS_TPSA>
157

> <PUBCHEM_MONOISOTOPIC_WEIGHT>
598.280278

> <PUBCHEM_TOTAL_CHARGE>
0

> <PUBCHEM_HEAVY_ATOM_COUNT>
43

> <PUBCHEM_ATOM_DEF_STEREO_COUNT>
4

> <PUBCHEM_ATOM_UDEF_STEREO_COUNT>
0

> <PUBCHEM_BOND_DEF_STEREO_COUNT>
1

> <PUBCHEM_BOND_UDEF_STEREO_COUNT>
0

> <PUBCHEM_ISOTOPIC_ATOM_COUNT>
0

> <PUBCHEM_COMPONENT_COUNT>
1

> <PUBCHEM_CACTVS_TAUTO_COUNT>
-1

> <PUBCHEM_COORDINATE_TYPE>
1
5
255

> <PUBCHEM_BONDANNOTATIONS>
16  10  6
22  11  5
12  37  8
13  14  6
19  20  5
27  31  8
27  32  8
31  35  8
32  36  8
35  38  8
36  38  8
37  39  8
39  40  8
8  12  8
8  40  8

$$$$
6476893
  -OEChem-02212016592D

 76 77  0     1  0  0  0  0  0999 V2000
    4.5981   -5.7500    0.0000 F   0  0  0  0  0  0  0  0  0  0  0  0
    6.3301   -1.7500    0.0000 O   0  0  0  0  0  0  0  0  0  0  0  0
    7.1962   -0.2500    0.0000 O   0  0  0  0  0  0  0  0  0  0  0  0
    6.3301    0.2500    0.0000 O   0  0  0  0  0  0  0  0  0  0  0  0
    9.7942   -2.7500    0.0000 O   0  0  0  0  0  0  0  0  0  0  0  0
   12.2429   -0.9136    0.0000 O   0  0  0  0  0  0  0  0  0  0  0  0
    7.1962    2.7500    0.0000 O   0  0  0  0  0  0  0  0  0  0  0  0
    2.8660    4.2500    0.0000 O   0  0  0  0  0  0  0  0  0  0  0  0
    2.0000    2.7500    0.0000 O   0  0  0  0  0  0  0  0  0  0  0  0
    8.9282   -1.2500    0.0000 N   0  0  0  0  0  0  0  0  0  0  0  0
    4.5981    0.2500    0.0000 N   0  0  0  0  0  0  0  0  0  0  0  0
    6.3301    4.2500    0.0000 N   0  0  0  0  0  0  0  0  0  0  0  0
   11.5738   -1.6567    0.0000 N   0  0  0  0  0  0  0  0  0  0  0  0
    8.0622   -2.7500    0.0000 C   0  0  0  0  0  0  0  0  0  0  0  0
    8.0622   -1.7500    0.0000 C   0  0  1  0  0  0  0  0  0  0  0  0
    5.4641   -1.2500    0.0000 C   0  0  1  0  0  0  0  0  0  0  0  0
    4.5981    1.2500    0.0000 C   0  0  1  0  0  0  0  0  0  0  0  0
    7.1962   -1.2500    0.0000 C   0  0  0  0  0  0  0  0  0  0  0  0
    4.5981   -1.7500    0.0000 C   0  0  0  0  0  0  0  0  0  0  0  0
    8.9282   -3.2500    0.0000 C   0  0  0  0  0  0  0  0  0  0  0  0
    7.1962   -3.2500    0.0000 C   0  0  0  0  0  0  0  0  0  0  0  0
    5.4641    1.7500    0.0000 C   0  0  0  0  0  0  0  0  0  0  0  0
    5.4641   -0.2500    0.0000 C   0  0  0  0  0  0  0  0  0  0  0  0
    4.5981   -2.7500    0.0000 C   0  0  0  0  0  0  0  0  0  0  0  0
    5.4641    2.7500    0.0000 C   0  0  0  0  0  0  0  0  0  0  0  0
    3.7320    1.7500    0.0000 C   0  0  0  0  0  0  0  0  0  0  0  0
    9.7942   -1.7500    0.0000 C   0  0  0  0  0  0  0  0  0  0  0  0
    5.4641   -3.2500    0.0000 C   0  0  0  0  0  0  0  0  0  0  0  0
    3.7320   -3.2500    0.0000 C   0  0  0  0  0  0  0  0  0  0  0  0
    6.3301    3.2500    0.0000 C   0  0  0  0  0  0  0  0  0  0  0  0
   10.6603   -1.2500    0.0000 C   0  0  0  0  0  0  0  0  0  0  0  0
    3.7320    2.7500    0.0000 C   0  0  0  0  0  0  0  0  0  0  0  0
    5.4641   -4.2500    0.0000 C   0  0  0  0  0  0  0  0  0  0  0  0
    3.7320   -4.2500    0.0000 C   0  0  0  0  0  0  0  0  0  0  0  0
    4.5981   -4.7500    0.0000 C   0  0  0  0  0  0  0  0  0  0  0  0
   10.7648   -0.2555    0.0000 C   0  0  0  0  0  0  0  0  0  0  0  0
    2.8660    3.2500    0.0000 C   0  0  0  0  0  0  0  0  0  0  0  0
   11.7429   -0.0476    0.0000 C   0  0  0  0  0  0  0  0  0  0  0  0
   12.1497    0.8660    0.0000 C   0  0  0  0  0  0  0  0  0  0  0  0
    2.0000    4.7500    0.0000 C   0  0  0  0  0  0  0  0  0  0  0  0
    2.0000    5.7500    0.0000 C   0  0  0  0  0  0  0  0  0  0  0  0
    8.0622   -3.3700    0.0000 H   0  0  0  0  0  0  0  0  0  0  0  0
    8.0622   -1.1300    0.0000 H   0  0  0  0  0  0  0  0  0  0  0  0
    5.4641   -1.8700    0.0000 H   0  0  0  0  0  0  0  0  0  0  0  0
    5.1350    0.9400    0.0000 H   0  0  0  0  0  0  0  0  0  0  0  0
    4.3860   -1.1674    0.0000 H   0  0  0  0  0  0  0  0  0  0  0  0
    3.9875   -1.8577    0.0000 H   0  0  0  0  0  0  0  0  0  0  0  0
    8.6182   -3.7869    0.0000 H   0  0  0  0  0  0  0  0  0  0  0  0
    9.4651   -3.5600    0.0000 H   0  0  0  0  0  0  0  0  0  0  0  0
    9.2382   -2.7131    0.0000 H   0  0  0  0  0  0  0  0  0  0  0  0
    6.8862   -2.7131    0.0000 H   0  0  0  0  0  0  0  0  0  0  0  0
    6.6592   -3.5600    0.0000 H   0  0  0  0  0  0  0  0  0  0  0  0
    7.5062   -3.7869    0.0000 H   0  0  0  0  0  0  0  0  0  0  0  0
    5.6762    1.1674    0.0000 H   0  0  0  0  0  0  0  0  0  0  0  0
    6.0747    1.8577    0.0000 H   0  0  0  0  0  0  0  0  0  0  0  0
    8.9282   -0.6300    0.0000 H   0  0  0  0  0  0  0  0  0  0  0  0
    4.0611   -0.0600    0.0000 H   0  0  0  0  0  0  0  0  0  0  0  0
    5.2520    3.3326    0.0000 H   0  0  0  0  0  0  0  0  0  0  0  0
    4.8535    2.6423    0.0000 H   0  0  0  0  0  0  0  0  0  0  0  0
    3.1951    1.4400    0.0000 H   0  0  0  0  0  0  0  0  0  0  0  0
    6.0010   -2.9400    0.0000 H   0  0  0  0  0  0  0  0  0  0  0  0
    3.1951   -2.9400    0.0000 H   0  0  0  0  0  0  0  0  0  0  0  0
    4.2690    3.0600    0.0000 H   0  0  0  0  0  0  0  0  0  0  0  0
    6.0010   -4.5600    0.0000 H   0  0  0  0  0  0  0  0  0  0  0  0
    3.1951   -4.5600    0.0000 H   0  0  0  0  0  0  0  0  0  0  0  0
   10.3040    0.1594    0.0000 H   0  0  0  0  0  0  0  0  0  0  0  0
    6.8671    4.5600    0.0000 H   0  0  0  0  0  0  0  0  0  0  0  0
    5.7932    4.5600    0.0000 H   0  0  0  0  0  0  0  0  0  0  0  0
   12.7161    0.6138    0.0000 H   0  0  0  0  0  0  0  0  0  0  0  0
   12.4018    1.4324    0.0000 H   0  0  0  0  0  0  0  0  0  0  0  0
   11.5833    1.1182    0.0000 H   0  0  0  0  0  0  0  0  0  0  0  0
    1.3894    4.8577    0.0000 H   0  0  0  0  0  0  0  0  0  0  0  0
    1.7880    4.1674    0.0000 H   0  0  0  0  0  0  0  0  0  0  0  0
    2.6200    5.7500    0.0000 H   0  0  0  0  0  0  0  0  0  0  0  0
    2.0000    6.3700    0.0000 H   0  0  0  0  0  0  0  0  0  0  0  0
    1.3800    5.7500    0.0000 H   0  0  0  0  0  0  0  0  0  0  0  0
  1 35  1  0  0  0  0
 16  2  1  1  0  0  0
  2 18  1  0  0  0  0
  3 18  2  0  0  0  0
  4 23  2  0  0  0  0
  5 27  2  0  0  0  0
  6 13  1  0  0  0  0
  6 38  1  0  0  0  0
  7 30  2  0  0  0  0
  8 37  1  0  0  0  0
  8 40  1  0  0  0  0
  9 37  2  0  0  0  0
 15 10  1  1  0  0  0
 10 27  1  0  0  0  0
 10 56  1  0  0  0  0
 17 11  1  6  0  0  0
 11 23  1  0  0  0  0
 11 57  1  0  0  0  0
 12 30  1  0  0  0  0
 12 67  1  0  0  0  0
 12 68  1  0  0  0  0
 13 31  2  0  0  0  0
 14 15  1  0  0  0  0
 14 20  1  0  0  0  0
 14 21  1  0  0  0  0
 14 42  1  0  0  0  0
 15 18  1  0  0  0  0
 15 43  1  0  0  0  0
 16 19  1  0  0  0  0
 16 23  1  0  0  0  0
 16 44  1  0  0  0  0
 17 22  1  0  0  0  0
 17 26  1  0  0  0  0
 17 45  1  0  0  0  0
 19 24  1  0  0  0  0
 19 46  1  0  0  0  0
 19 47  1  0  0  0  0
 20 48  1  0  0  0  0
 20 49  1  0  0  0  0
 20 50  1  0  0  0  0
 21 51  1  0  0  0  0
 21 52  1  0  0  0  0
 21 53  1  0  0  0  0
 22 25  1  0  0  0  0
 22 54  1  0  0  0  0
 22 55  1  0  0  0  0
 24 28  2  0  0  0  0
 24 29  1  0  0  0  0
 25 30  1  0  0  0  0
 25 58  1  0  0  0  0
 25 59  1  0  0  0  0
 26 32  2  0  0  0  0
 26 60  1  0  0  0  0
 27 31  1  0  0  0  0
 28 33  1  0  0  0  0
 28 61  1  0  0  0  0
 29 34  2  0  0  0  0
 29 62  1  0  0  0  0
 31 36  1  0  0  0  0
 32 37  1  0  0  0  0
 32 63  1  0  0  0  0
 33 35  2  0  0  0  0
 33 64  1  0  0  0  0
 34 35  1  0  0  0  0
 34 65  1  0  0  0  0
 36 38  2  0  0  0  0
 36 66  1  0  0  0  0
 38 39  1  0  0  0  0
 39 69  1  0  0  0  0
 39 70  1  0  0  0  0
 39 71  1  0  0  0  0
 40 41  1  0  0  0  0
 40 72  1  0  0  0  0
 40 73  1  0  0  0  0
 41 74  1  0  0  0  0
 41 75  1  0  0  0  0
 41 76  1  0  0  0  0
M  END
> <PUBCHEM_COMPOUND_CID>
6476893

> <PUBCHEM_COMPOUND_CANONICALIZED>
1

> <PUBCHEM_CACTVS_COMPLEXITY>
938

> <PUBCHEM_CACTVS_HBOND_ACCEPTOR>
10

> <PUBCHEM_CACTVS_HBOND_DONOR>
3

> <PUBCHEM_CACTVS_ROTATABLE_BOND>
17

> <PUBCHEM_CACTVS_SUBSKEYS>
AAADcfB7vQAAAAAAAAAAAAAAAAAAAWAAAAAwAAAAAAAAAAABwAAAHwAUAAAADTzhng4yjJLQBACpA6XyWgKCAAAmIgAomKH+bNoKZjqAtbeXMYhm1hmY6ce/yKCOAAAAAAAAAAAAAAAAAAAAAAAAAAAAAA==

> <PUBCHEM_IUPAC_OPENEYE_NAME>
ethyl (E,4S)-7-amino-4-[[(2S)-3-(4-fluorophenyl)-2-[(2S)-3-methyl-2-[(5-methylisoxazole-3-carbonyl)amino]butanoyl]oxy-propanoyl]amino]-7-oxo-hept-2-enoate

> <PUBCHEM_IUPAC_CAS_NAME>
(E,4S)-7-amino-4-[[(2S)-3-(4-fluorophenyl)-2-[(2S)-3-methyl-2-[[(5-methyl-3-isoxazolyl)-oxomethyl]amino]-1-oxobutoxy]-1-oxopropyl]amino]-7-oxo-2-heptenoic acid ethyl ester

> <PUBCHEM_IUPAC_NAME_MARKUP>
ethyl (<I>E</I>,4<I>S</I>)-7-amino-4-[[(2<I>S</I>)-3-(4-fluorophenyl)-2-[(2<I>S</I>)-3-methyl-2-[(5-methyl-1,2-oxazole-3-carbonyl)amino]butanoyl]oxypropanoyl]amino]-7-oxohept-2-enoate

> <PUBCHEM_IUPAC_NAME>
ethyl (E,4S)-7-amino-4-[[(2S)-3-(4-fluorophenyl)-2-[(2S)-3-methyl-2-[(5-methyl-1,2-oxazole-3-carbonyl)amino]butanoyl]oxypropanoyl]amino]-7-oxohept-2-enoate

> <PUBCHEM_IUPAC_SYSTEMATIC_NAME>
ethyl (E,4S)-7-azanyl-4-[[(2S)-3-(4-fluorophenyl)-2-[(2S)-3-methyl-2-[(5-methyl-1,2-oxazol-3-yl)carbonylamino]butanoyl]oxy-propanoyl]amino]-7-oxidanylidene-hept-2-enoate

> <PUBCHEM_IUPAC_TRADITIONAL_NAME>
(E,4S)-7-amino-4-[[(2S)-3-(4-fluorophenyl)-2-[(2S)-3-methyl-2-[(5-methylisoxazole-3-carbonyl)amino]butanoyl]oxy-propanoyl]amino]-7-keto-hept-2-enoic acid ethyl ester

> <PUBCHEM_IUPAC_INCHI>
InChI=1S/C28H35FN4O8/c1-5-39-24(35)13-11-20(10-12-23(30)34)31-27(37)22(15-18-6-8-19(29)9-7-18)40-28(38)25(16(2)3)32-26(36)21-14-17(4)41-33-21/h6-9,11,13-14,16,20,22,25H,5,10,12,15H2,1-4H3,(H2,30,34)(H,31,37)(H,32,36)/b13-11+/t20-,22-,25-/m0/s1

> <PUBCHEM_IUPAC_INCHIKEY>
YJFMXXPPIPGSGB-OBOJWRGTSA-N

> <PUBCHEM_XLOGP3_AA>
2.9

> <PUBCHEM_EXACT_MASS>
574.243892

> <PUBCHEM_MOLECULAR_FORMULA>
C28H35FN4O8

> <PUBCHEM_MOLECULAR_WEIGHT>
574.6

> <PUBCHEM_OPENEYE_CAN_SMILES>
CCOC(=O)C=CC(CCC(=O)N)NC(=O)C(CC1=CC=C(C=C1)F)OC(=O)C(C(C)C)NC(=O)C2=NOC(=C2)C

> <PUBCHEM_OPENEYE_ISO_SMILES>
CCOC(=O)/C=C/[C@H](CCC(=O)N)NC(=O)[C@H](CC1=CC=C(C=C1)F)OC(=O)[C@H](C(C)C)NC(=O)C2=NOC(=C2)C

> <PUBCHEM_CACTVS_TPSA>
180

> <PUBCHEM_MONOISOTOPIC_WEIGHT>
574.243892

> <PUBCHEM_TOTAL_CHARGE>
0

> <PUBCHEM_HEAVY_ATOM_COUNT>
41

> <PUBCHEM_ATOM_DEF_STEREO_COUNT>
3

> <PUBCHEM_ATOM_UDEF_STEREO_COUNT>
0

> <PUBCHEM_BOND_DEF_STEREO_COUNT>
1

> <PUBCHEM_BOND_UDEF_STEREO_COUNT>
0

> <PUBCHEM_ISOTOPIC_ATOM_COUNT>
0

> <PUBCHEM_COMPONENT_COUNT>
1

> <PUBCHEM_CACTVS_TAUTO_COUNT>
-1

> <PUBCHEM_COORDINATE_TYPE>
1
5
255

> <PUBCHEM_BONDANNOTATIONS>
15  10  5
17  11  6
13  31  8
16  2  5
24  28  8
24  29  8
28  33  8
29  34  8
31  36  8
33  35  8
34  35  8
36  38  8
6  13  8
6  38  8

$$$$
6476894
  -OEChem-02212016592D

 77 78  0     1  0  0  0  0  0999 V2000
    6.3092   -5.1012    0.0000 F   0  0  0  0  0  0  0  0  0  0  0  0
    5.4432    0.3988    0.0000 O   0  0  0  0  0  0  0  0  0  0  0  0
    8.0413   -2.1012    0.0000 O   0  0  0  0  0  0  0  0  0  0  0  0
    6.3092    3.8988    0.0000 O   0  0  0  0  0  0  0  0  0  0  0  0
    3.4945    5.1012    0.0000 O   0  0  0  0  0  0  0  0  0  0  0  0
    9.7734   -4.1012    0.0000 O   0  0  0  0  0  0  0  0  0  0  0  0
   13.2375   -1.1012    0.0000 O   0  0  0  0  0  0  0  0  0  0  0  0
   12.3714    0.3988    0.0000 O   0  0  0  0  0  0  0  0  0  0  0  0
    7.1753    0.3988    0.0000 N   0  0  0  0  0  0  0  0  0  0  0  0
    5.4432    2.3988    0.0000 N   0  0  0  0  0  0  0  0  0  0  0  0
    8.9073   -0.6012    0.0000 N   0  0  0  0  0  0  0  0  0  0  0  0
    4.4727    4.8933    0.0000 N   0  0  0  0  0  0  0  0  0  0  0  0
   11.5054   -4.1012    0.0000 N   0  0  0  0  0  0  0  0  0  0  0  0
    6.3092    1.8988    0.0000 C   0  0  1  0  0  0  0  0  0  0  0  0
    7.1753    2.3988    0.0000 C   0  0  0  0  0  0  0  0  0  0  0  0
    7.1753   -0.6012    0.0000 C   0  0  1  0  0  0  0  0  0  0  0  0
    6.3092    0.8988    0.0000 C   0  0  0  0  0  0  0  0  0  0  0  0
    6.3092   -1.1012    0.0000 C   0  0  0  0  0  0  0  0  0  0  0  0
    9.7734   -1.1012    0.0000 C   0  0  1  0  0  0  0  0  0  0  0  0
    8.0413   -1.1012    0.0000 C   0  0  0  0  0  0  0  0  0  0  0  0
    7.1753    3.3988    0.0000 C   0  0  0  0  0  0  0  0  0  0  0  0
    8.0413    1.8988    0.0000 C   0  0  0  0  0  0  0  0  0  0  0  0
    9.7734   -2.1012    0.0000 C   0  0  0  0  0  0  0  0  0  0  0  0
    6.3092   -2.1012    0.0000 C   0  0  0  0  0  0  0  0  0  0  0  0
   10.6394   -2.6012    0.0000 C   0  0  0  0  0  0  0  0  0  0  0  0
   10.6394   -0.6012    0.0000 C   0  0  0  0  0  0  0  0  0  0  0  0
    5.4432    3.3988    0.0000 C   0  0  0  0  0  0  0  0  0  0  0  0
    7.1753   -2.6012    0.0000 C   0  0  0  0  0  0  0  0  0  0  0  0
    5.4432   -2.6012    0.0000 C   0  0  0  0  0  0  0  0  0  0  0  0
    4.5772    3.8988    0.0000 C   0  0  0  0  0  0  0  0  0  0  0  0
   10.6394   -3.6012    0.0000 C   0  0  0  0  0  0  0  0  0  0  0  0
    7.1753   -3.6012    0.0000 C   0  0  0  0  0  0  0  0  0  0  0  0
    5.4432   -3.6012    0.0000 C   0  0  0  0  0  0  0  0  0  0  0  0
   11.5054   -1.1012    0.0000 C   0  0  0  0  0  0  0  0  0  0  0  0
    6.3092   -4.1012    0.0000 C   0  0  0  0  0  0  0  0  0  0  0  0
    3.6636    3.4920    0.0000 C   0  0  0  0  0  0  0  0  0  0  0  0
   12.3714   -0.6012    0.0000 C   0  0  0  0  0  0  0  0  0  0  0  0
    2.9945    4.2352    0.0000 C   0  0  0  0  0  0  0  0  0  0  0  0
    2.0000    4.1307    0.0000 C   0  0  0  0  0  0  0  0  0  0  0  0
   14.1035   -0.6012    0.0000 C   0  0  0  0  0  0  0  0  0  0  0  0
   14.9695   -1.1012    0.0000 C   0  0  0  0  0  0  0  0  0  0  0  0
    6.3092    2.5188    0.0000 H   0  0  0  0  0  0  0  0  0  0  0  0
    7.1753    1.7788    0.0000 H   0  0  0  0  0  0  0  0  0  0  0  0
    7.7122   -0.2912    0.0000 H   0  0  0  0  0  0  0  0  0  0  0  0
    6.0972   -0.5186    0.0000 H   0  0  0  0  0  0  0  0  0  0  0  0
    5.6987   -1.2089    0.0000 H   0  0  0  0  0  0  0  0  0  0  0  0
    7.7122    0.7088    0.0000 H   0  0  0  0  0  0  0  0  0  0  0  0
    9.7734   -0.4812    0.0000 H   0  0  0  0  0  0  0  0  0  0  0  0
    7.7953    3.3988    0.0000 H   0  0  0  0  0  0  0  0  0  0  0  0
    7.1753    4.0188    0.0000 H   0  0  0  0  0  0  0  0  0  0  0  0
    6.5553    3.3988    0.0000 H   0  0  0  0  0  0  0  0  0  0  0  0
    7.7313    1.3618    0.0000 H   0  0  0  0  0  0  0  0  0  0  0  0
    8.5782    1.5888    0.0000 H   0  0  0  0  0  0  0  0  0  0  0  0
    8.3513    2.4357    0.0000 H   0  0  0  0  0  0  0  0  0  0  0  0
    4.9063    2.0888    0.0000 H   0  0  0  0  0  0  0  0  0  0  0  0
    8.9073    0.0188    0.0000 H   0  0  0  0  0  0  0  0  0  0  0  0
    9.1628   -1.9936    0.0000 H   0  0  0  0  0  0  0  0  0  0  0  0
    9.5613   -2.6838    0.0000 H   0  0  0  0  0  0  0  0  0  0  0  0
   11.2500   -2.7089    0.0000 H   0  0  0  0  0  0  0  0  0  0  0  0
   10.8514   -2.0186    0.0000 H   0  0  0  0  0  0  0  0  0  0  0  0
   10.6394    0.0188    0.0000 H   0  0  0  0  0  0  0  0  0  0  0  0
    7.7122   -2.2912    0.0000 H   0  0  0  0  0  0  0  0  0  0  0  0
    4.9063   -2.2912    0.0000 H   0  0  0  0  0  0  0  0  0  0  0  0
    7.7122   -3.9112    0.0000 H   0  0  0  0  0  0  0  0  0  0  0  0
    4.9063   -3.9112    0.0000 H   0  0  0  0  0  0  0  0  0  0  0  0
   11.5054   -1.7212    0.0000 H   0  0  0  0  0  0  0  0  0  0  0  0
    3.5348    2.8856    0.0000 H   0  0  0  0  0  0  0  0  0  0  0  0
   11.5054   -4.7212    0.0000 H   0  0  0  0  0  0  0  0  0  0  0  0
   12.0423   -3.7912    0.0000 H   0  0  0  0  0  0  0  0  0  0  0  0
    1.9352    4.7473    0.0000 H   0  0  0  0  0  0  0  0  0  0  0  0
    1.3834    4.0659    0.0000 H   0  0  0  0  0  0  0  0  0  0  0  0
    2.0648    3.5141    0.0000 H   0  0  0  0  0  0  0  0  0  0  0  0
   14.5020   -0.1263    0.0000 H   0  0  0  0  0  0  0  0  0  0  0  0
   13.7049   -0.1263    0.0000 H   0  0  0  0  0  0  0  0  0  0  0  0
   14.6595   -1.6382    0.0000 H   0  0  0  0  0  0  0  0  0  0  0  0
   15.5064   -1.4112    0.0000 H   0  0  0  0  0  0  0  0  0  0  0  0
   15.2795   -0.5643    0.0000 H   0  0  0  0  0  0  0  0  0  0  0  0
  1 35  1  0  0  0  0
  2 17  2  0  0  0  0
  3 20  2  0  0  0  0
  4 27  2  0  0  0  0
  5 12  1  0  0  0  0
  5 38  1  0  0  0  0
  6 31  2  0  0  0  0
  7 37  1  0  0  0  0
  7 40  1  0  0  0  0
  8 37  2  0  0  0  0
 16  9  1  6  0  0  0
  9 17  1  0  0  0  0
  9 47  1  0  0  0  0
 14 10  1  1  0  0  0
 10 27  1  0  0  0  0
 10 55  1  0  0  0  0
 19 11  1  6  0  0  0
 11 20  1  0  0  0  0
 11 56  1  0  0  0  0
 12 30  2  0  0  0  0
 13 31  1  0  0  0  0
 13 68  1  0  0  0  0
 13 69  1  0  0  0  0
 14 15  1  0  0  0  0
 14 17  1  0  0  0  0
 14 42  1  0  0  0  0
 15 21  1  0  0  0  0
 15 22  1  0  0  0  0
 15 43  1  0  0  0  0
 16 18  1  0  0  0  0
 16 20  1  0  0  0  0
 16 44  1  0  0  0  0
 18 24  1  0  0  0  0
 18 45  1  0  0  0  0
 18 46  1  0  0  0  0
 19 23  1  0  0  0  0
 19 26  1  0  0  0  0
 19 48  1  0  0  0  0
 21 49  1  0  0  0  0
 21 50  1  0  0  0  0
 21 51  1  0  0  0  0
 22 52  1  0  0  0  0
 22 53  1  0  0  0  0
 22 54  1  0  0  0  0
 23 25  1  0  0  0  0
 23 57  1  0  0  0  0
 23 58  1  0  0  0  0
 24 28  2  0  0  0  0
 24 29  1  0  0  0  0
 25 31  1  0  0  0  0
 25 59  1  0  0  0  0
 25 60  1  0  0  0  0
 26 34  2  0  0  0  0
 26 61  1  0  0  0  0
 27 30  1  0  0  0  0
 28 32  1  0  0  0  0
 28 62  1  0  0  0  0
 29 33  2  0  0  0  0
 29 63  1  0  0  0  0
 30 36  1  0  0  0  0
 32 35  2  0  0  0  0
 32 64  1  0  0  0  0
 33 35  1  0  0  0  0
 33 65  1  0  0  0  0
 34 37  1  0  0  0  0
 34 66  1  0  0  0  0
 36 38  2  0  0  0  0
 36 67  1  0  0  0  0
 38 39  1  0  0  0  0
 39 70  1  0  0  0  0
 39 71  1  0  0  0  0
 39 72  1  0  0  0  0
 40 41  1  0  0  0  0
 40 73  1  0  0  0  0
 40 74  1  0  0  0  0
 41 75  1  0  0  0  0
 41 76  1  0  0  0  0
 41 77  1  0  0  0  0
M  END
> <PUBCHEM_COMPOUND_CID>
6476894

> <PUBCHEM_COMPOUND_CANONICALIZED>
1

> <PUBCHEM_CACTVS_COMPLEXITY>
939

> <PUBCHEM_CACTVS_HBOND_ACCEPTOR>
9

> <PUBCHEM_CACTVS_HBOND_DONOR>
4

> <PUBCHEM_CACTVS_ROTATABLE_BOND>
16

> <PUBCHEM_CACTVS_SUBSKEYS>
AAADcfB7uQAAAAAAAAAAAAAAAAAAAWAAAAAwAAAAAAAAAAABwAAAHwAUAAAADSzhng4yjJLQBACpA6XyWgCCAAAmIgAomKG+bNoIZjqAtbOWMYhmlhiI6cc/iICOAAAAAAAAAAAAAAAAAAAAAAAAAAAAAA==

> <PUBCHEM_IUPAC_OPENEYE_NAME>
ethyl (E,4S)-7-amino-4-[[(2S)-3-(4-fluorophenyl)-2-[[(2S)-3-methyl-2-[(5-methylisoxazole-3-carbonyl)amino]butanoyl]amino]propanoyl]amino]-7-oxo-hept-2-enoate

> <PUBCHEM_IUPAC_CAS_NAME>
(E,4S)-7-amino-4-[[(2S)-3-(4-fluorophenyl)-2-[[(2S)-3-methyl-2-[[(5-methyl-3-isoxazolyl)-oxomethyl]amino]-1-oxobutyl]amino]-1-oxopropyl]amino]-7-oxo-2-heptenoic acid ethyl ester

> <PUBCHEM_IUPAC_NAME_MARKUP>
ethyl (<I>E</I>,4<I>S</I>)-7-amino-4-[[(2<I>S</I>)-3-(4-fluorophenyl)-2-[[(2<I>S</I>)-3-methyl-2-[(5-methyl-1,2-oxazole-3-carbonyl)amino]butanoyl]amino]propanoyl]amino]-7-oxohept-2-enoate

> <PUBCHEM_IUPAC_NAME>
ethyl (E,4S)-7-amino-4-[[(2S)-3-(4-fluorophenyl)-2-[[(2S)-3-methyl-2-[(5-methyl-1,2-oxazole-3-carbonyl)amino]butanoyl]amino]propanoyl]amino]-7-oxohept-2-enoate

> <PUBCHEM_IUPAC_SYSTEMATIC_NAME>
ethyl (E,4S)-7-azanyl-4-[[(2S)-3-(4-fluorophenyl)-2-[[(2S)-3-methyl-2-[(5-methyl-1,2-oxazol-3-yl)carbonylamino]butanoyl]amino]propanoyl]amino]-7-oxidanylidene-hept-2-enoate

> <PUBCHEM_IUPAC_TRADITIONAL_NAME>
(E,4S)-7-amino-4-[[(2S)-3-(4-fluorophenyl)-2-[[(2S)-3-methyl-2-[(5-methylisoxazole-3-carbonyl)amino]butanoyl]amino]propanoyl]amino]-7-keto-hept-2-enoic acid ethyl ester

> <PUBCHEM_IUPAC_INCHI>
InChI=1S/C28H36FN5O7/c1-5-40-24(36)13-11-20(10-12-23(30)35)31-26(37)21(15-18-6-8-19(29)9-7-18)32-28(39)25(16(2)3)33-27(38)22-14-17(4)41-34-22/h6-9,11,13-14,16,20-21,25H,5,10,12,15H2,1-4H3,(H2,30,35)(H,31,37)(H,32,39)(H,33,38)/b13-11+/t20-,21-,25-/m0/s1

> <PUBCHEM_IUPAC_INCHIKEY>
UFMNDOUAXQOQTP-DNFIYLLGSA-N

> <PUBCHEM_XLOGP3_AA>
2.3

> <PUBCHEM_EXACT_MASS>
573.259877

> <PUBCHEM_MOLECULAR_FORMULA>
C28H36FN5O7

> <PUBCHEM_MOLECULAR_WEIGHT>
573.6

> <PUBCHEM_OPENEYE_CAN_SMILES>
CCOC(=O)C=CC(CCC(=O)N)NC(=O)C(CC1=CC=C(C=C1)F)NC(=O)C(C(C)C)NC(=O)C2=NOC(=C2)C

> <PUBCHEM_OPENEYE_ISO_SMILES>
CCOC(=O)/C=C/[C@H](CCC(=O)N)NC(=O)[C@H](CC1=CC=C(C=C1)F)NC(=O)[C@H](C(C)C)NC(=O)C2=NOC(=C2)C

> <PUBCHEM_CACTVS_TPSA>
183

> <PUBCHEM_MONOISOTOPIC_WEIGHT>
573.259877

> <PUBCHEM_TOTAL_CHARGE>
0

> <PUBCHEM_HEAVY_ATOM_COUNT>
41

> <PUBCHEM_ATOM_DEF_STEREO_COUNT>
3

> <PUBCHEM_ATOM_UDEF_STEREO_COUNT>
0

> <PUBCHEM_BOND_DEF_STEREO_COUNT>
1

> <PUBCHEM_BOND_UDEF_STEREO_COUNT>
0

> <PUBCHEM_ISOTOPIC_ATOM_COUNT>
0

> <PUBCHEM_COMPONENT_COUNT>
1

> <PUBCHEM_CACTVS_TAUTO_COUNT>
-1

> <PUBCHEM_COORDINATE_TYPE>
1
5
255

> <PUBCHEM_BONDANNOTATIONS>
14  10  5
19  11  6
12  30  8
24  28  8
24  29  8
28  32  8
29  33  8
30  36  8
32  35  8
33  35  8
36  38  8
5  12  8
5  38  8
16  9  6

$$$$
6476896
  -OEChem-02212016592D

 80 82  0     1  0  0  0  0  0999 V2000
    5.4641   -5.2702    0.0000 F   0  0  0  0  0  0  0  0  0  0  0  0
    8.0902    3.5086    0.0000 O   0  0  0  0  0  0  0  0  0  0  0  0
    7.1962   -1.2702    0.0000 O   0  0  0  0  0  0  0  0  0  0  0  0
    7.1962    0.7298    0.0000 O   0  0  0  0  0  0  0  0  0  0  0  0
    8.0622    0.2298    0.0000 O   0  0  0  0  0  0  0  0  0  0  0  0
    2.8660    3.2298    0.0000 O   0  0  0  0  0  0  0  0  0  0  0  0
    2.0000    1.7298    0.0000 O   0  0  0  0  0  0  0  0  0  0  0  0
   10.6603   -2.2702    0.0000 O   0  0  0  0  0  0  0  0  0  0  0  0
   12.6090    0.4322    0.0000 O   0  0  0  0  0  0  0  0  0  0  0  0
    6.8301    4.7686    0.0000 N   0  0  0  0  0  0  0  0  0  0  0  0
    5.4641    0.7298    0.0000 N   0  0  0  0  0  0  0  0  0  0  0  0
    9.7942   -0.7702    0.0000 N   0  0  0  0  0  0  0  0  0  0  0  0
   11.6308    0.2243    0.0000 N   0  0  0  0  0  0  0  0  0  0  0  0
    6.3301    3.2298    0.0000 C   0  0  1  0  0  0  0  0  0  0  0  0
    5.5211    3.8176    0.0000 C   0  0  0  0  0  0  0  0  0  0  0  0
    6.3301    2.2298    0.0000 C   0  0  0  0  0  0  0  0  0  0  0  0
    5.8301    4.7686    0.0000 C   0  0  0  0  0  0  0  0  0  0  0  0
    5.4641    1.7298    0.0000 C   0  0  1  0  0  0  0  0  0  0  0  0
    7.1391    3.8176    0.0000 C   0  0  0  0  0  0  0  0  0  0  0  0
    4.5981    2.2298    0.0000 C   0  0  0  0  0  0  0  0  0  0  0  0
    6.3301   -0.7702    0.0000 C   0  0  2  0  0  0  0  0  0  0  0  0
    6.3301    0.2298    0.0000 C   0  0  0  0  0  0  0  0  0  0  0  0
    8.9282   -1.2702    0.0000 C   0  0  1  0  0  0  0  0  0  0  0  0
    5.4641   -1.2702    0.0000 C   0  0  0  0  0  0  0  0  0  0  0  0
    8.9282   -2.2702    0.0000 C   0  0  0  0  0  0  0  0  0  0  0  0
    3.7320    1.7298    0.0000 C   0  0  0  0  0  0  0  0  0  0  0  0
    8.0622   -0.7702    0.0000 C   0  0  0  0  0  0  0  0  0  0  0  0
    5.4641   -2.2702    0.0000 C   0  0  0  0  0  0  0  0  0  0  0  0
    9.7942   -2.7702    0.0000 C   0  0  0  0  0  0  0  0  0  0  0  0
    8.0622   -2.7702    0.0000 C   0  0  0  0  0  0  0  0  0  0  0  0
    2.8660    2.2298    0.0000 C   0  0  0  0  0  0  0  0  0  0  0  0
    6.3301   -2.7702    0.0000 C   0  0  0  0  0  0  0  0  0  0  0  0
    4.5981   -2.7702    0.0000 C   0  0  0  0  0  0  0  0  0  0  0  0
   10.6603   -1.2702    0.0000 C   0  0  0  0  0  0  0  0  0  0  0  0
    6.3301   -3.7702    0.0000 C   0  0  0  0  0  0  0  0  0  0  0  0
    4.5981   -3.7702    0.0000 C   0  0  0  0  0  0  0  0  0  0  0  0
   11.5263   -0.7702    0.0000 C   0  0  0  0  0  0  0  0  0  0  0  0
    5.4641   -4.2702    0.0000 C   0  0  0  0  0  0  0  0  0  0  0  0
    2.0000    3.7298    0.0000 C   0  0  0  0  0  0  0  0  0  0  0  0
   12.4398   -1.1770    0.0000 C   0  0  0  0  0  0  0  0  0  0  0  0
   13.1090   -0.4338    0.0000 C   0  0  0  0  0  0  0  0  0  0  0  0
    2.0000    4.7298    0.0000 C   0  0  0  0  0  0  0  0  0  0  0  0
   14.1035   -0.5383    0.0000 C   0  0  0  0  0  0  0  0  0  0  0  0
    6.8826    2.9483    0.0000 H   0  0  0  0  0  0  0  0  0  0  0  0
    4.9547    4.0698    0.0000 H   0  0  0  0  0  0  0  0  0  0  0  0
    5.2111    3.2806    0.0000 H   0  0  0  0  0  0  0  0  0  0  0  0
    6.5422    1.6472    0.0000 H   0  0  0  0  0  0  0  0  0  0  0  0
    6.9407    2.3374    0.0000 H   0  0  0  0  0  0  0  0  0  0  0  0
    5.8949    5.3852    0.0000 H   0  0  0  0  0  0  0  0  0  0  0  0
    5.2237    4.8975    0.0000 H   0  0  0  0  0  0  0  0  0  0  0  0
    6.0010    1.4198    0.0000 H   0  0  0  0  0  0  0  0  0  0  0  0
    7.1946    5.2702    0.0000 H   0  0  0  0  0  0  0  0  0  0  0  0
    4.9272    0.4198    0.0000 H   0  0  0  0  0  0  0  0  0  0  0  0
    4.5981    2.8498    0.0000 H   0  0  0  0  0  0  0  0  0  0  0  0
    6.8671   -0.4602    0.0000 H   0  0  0  0  0  0  0  0  0  0  0  0
    8.9282   -0.6502    0.0000 H   0  0  0  0  0  0  0  0  0  0  0  0
    5.2520   -0.6876    0.0000 H   0  0  0  0  0  0  0  0  0  0  0  0
    4.8535   -1.3779    0.0000 H   0  0  0  0  0  0  0  0  0  0  0  0
    9.4651   -1.9602    0.0000 H   0  0  0  0  0  0  0  0  0  0  0  0
    3.7320    1.1098    0.0000 H   0  0  0  0  0  0  0  0  0  0  0  0
    9.4842   -3.3072    0.0000 H   0  0  0  0  0  0  0  0  0  0  0  0
   10.3312   -3.0802    0.0000 H   0  0  0  0  0  0  0  0  0  0  0  0
   10.1042   -2.2333    0.0000 H   0  0  0  0  0  0  0  0  0  0  0  0
    7.7522   -2.2333    0.0000 H   0  0  0  0  0  0  0  0  0  0  0  0
    7.5252   -3.0802    0.0000 H   0  0  0  0  0  0  0  0  0  0  0  0
    8.3722   -3.3072    0.0000 H   0  0  0  0  0  0  0  0  0  0  0  0
    9.7942   -0.1502    0.0000 H   0  0  0  0  0  0  0  0  0  0  0  0
    6.8671   -2.4602    0.0000 H   0  0  0  0  0  0  0  0  0  0  0  0
    4.0611   -2.4602    0.0000 H   0  0  0  0  0  0  0  0  0  0  0  0
    6.8671   -4.0802    0.0000 H   0  0  0  0  0  0  0  0  0  0  0  0
    4.0611   -4.0802    0.0000 H   0  0  0  0  0  0  0  0  0  0  0  0
    1.3894    3.8374    0.0000 H   0  0  0  0  0  0  0  0  0  0  0  0
    1.7880    3.1472    0.0000 H   0  0  0  0  0  0  0  0  0  0  0  0
   12.5687   -1.7834    0.0000 H   0  0  0  0  0  0  0  0  0  0  0  0
    2.6200    4.7298    0.0000 H   0  0  0  0  0  0  0  0  0  0  0  0
    2.0000    5.3498    0.0000 H   0  0  0  0  0  0  0  0  0  0  0  0
    1.3800    4.7298    0.0000 H   0  0  0  0  0  0  0  0  0  0  0  0
   14.0387   -1.1549    0.0000 H   0  0  0  0  0  0  0  0  0  0  0  0
   14.7201   -0.6031    0.0000 H   0  0  0  0  0  0  0  0  0  0  0  0
   14.1683    0.0783    0.0000 H   0  0  0  0  0  0  0  0  0  0  0  0
  1 38  1  0  0  0  0
  2 19  2  0  0  0  0
 21  3  1  1  0  0  0
  3 27  1  0  0  0  0
  4 22  2  0  0  0  0
  5 27  2  0  0  0  0
  6 31  1  0  0  0  0
  6 39  1  0  0  0  0
  7 31  2  0  0  0  0
  8 34  2  0  0  0  0
  9 13  1  0  0  0  0
  9 41  1  0  0  0  0
 10 17  1  0  0  0  0
 10 19  1  0  0  0  0
 10 52  1  0  0  0  0
 18 11  1  6  0  0  0
 11 22  1  0  0  0  0
 11 53  1  0  0  0  0
 23 12  1  1  0  0  0
 12 34  1  0  0  0  0
 12 67  1  0  0  0  0
 13 37  2  0  0  0  0
 14 15  1  0  0  0  0
 14 16  1  6  0  0  0
 14 19  1  0  0  0  0
 14 44  1  0  0  0  0
 15 17  1  0  0  0  0
 15 45  1  0  0  0  0
 15 46  1  0  0  0  0
 16 18  1  0  0  0  0
 16 47  1  0  0  0  0
 16 48  1  0  0  0  0
 17 49  1  0  0  0  0
 17 50  1  0  0  0  0
 18 20  1  0  0  0  0
 18 51  1  0  0  0  0
 20 26  2  0  0  0  0
 20 54  1  0  0  0  0
 21 22  1  0  0  0  0
 21 24  1  0  0  0  0
 21 55  1  0  0  0  0
 23 25  1  0  0  0  0
 23 27  1  0  0  0  0
 23 56  1  0  0  0  0
 24 28  1  0  0  0  0
 24 57  1  0  0  0  0
 24 58  1  0  0  0  0
 25 29  1  0  0  0  0
 25 30  1  0  0  0  0
 25 59  1  0  0  0  0
 26 31  1  0  0  0  0
 26 60  1  0  0  0  0
 28 32  2  0  0  0  0
 28 33  1  0  0  0  0
 29 61  1  0  0  0  0
 29 62  1  0  0  0  0
 29 63  1  0  0  0  0
 30 64  1  0  0  0  0
 30 65  1  0  0  0  0
 30 66  1  0  0  0  0
 32 35  1  0  0  0  0
 32 68  1  0  0  0  0
 33 36  2  0  0  0  0
 33 69  1  0  0  0  0
 34 37  1  0  0  0  0
 35 38  2  0  0  0  0
 35 70  1  0  0  0  0
 36 38  1  0  0  0  0
 36 71  1  0  0  0  0
 37 40  1  0  0  0  0
 39 42  1  0  0  0  0
 39 72  1  0  0  0  0
 39 73  1  0  0  0  0
 40 41  2  0  0  0  0
 40 74  1  0  0  0  0
 41 43  1  0  0  0  0
 42 75  1  0  0  0  0
 42 76  1  0  0  0  0
 42 77  1  0  0  0  0
 43 78  1  0  0  0  0
 43 79  1  0  0  0  0
 43 80  1  0  0  0  0
M  END
> <PUBCHEM_COMPOUND_CID>
6476896

> <PUBCHEM_COMPOUND_CANONICALIZED>
1

> <PUBCHEM_CACTVS_COMPLEXITY>
1020

> <PUBCHEM_CACTVS_HBOND_ACCEPTOR>
10

> <PUBCHEM_CACTVS_HBOND_DONOR>
3

> <PUBCHEM_CACTVS_ROTATABLE_BOND>
16

> <PUBCHEM_CACTVS_SUBSKEYS>
AAADcfB7vQAAAAAAAAAAAAAAAAAAAWLAAAAwAAAAAAAAAAABwAAAHwAUAAAADTzhng4yjJLQBACpA6XyWgKCAAAmIgAomKH+bNoKZjqAtbeXMYhm1hmY6ce/yKCOAAAAAAAAAAAAAAAAAAAAAAAAAAAAAA==

> <PUBCHEM_IUPAC_OPENEYE_NAME>
ethyl (E,4S)-4-[[(2S)-3-(4-fluorophenyl)-2-[(2S)-3-methyl-2-[(5-methylisoxazole-3-carbonyl)amino]butanoyl]oxy-propanoyl]amino]-5-[(3S)-2-oxopyrrolidin-3-yl]pent-2-enoate

> <PUBCHEM_IUPAC_CAS_NAME>
(E,4S)-4-[[(2S)-3-(4-fluorophenyl)-2-[(2S)-3-methyl-2-[[(5-methyl-3-isoxazolyl)-oxomethyl]amino]-1-oxobutoxy]-1-oxopropyl]amino]-5-[(3S)-2-oxo-3-pyrrolidinyl]-2-pentenoic acid ethyl ester

> <PUBCHEM_IUPAC_NAME_MARKUP>
ethyl (<I>E</I>,4<I>S</I>)-4-[[(2<I>S</I>)-3-(4-fluorophenyl)-2-[(2<I>S</I>)-3-methyl-2-[(5-methyl-1,2-oxazole-3-carbonyl)amino]butanoyl]oxypropanoyl]amino]-5-[(3<I>S</I>)-2-oxopyrrolidin-3-yl]pent-2-enoate

> <PUBCHEM_IUPAC_NAME>
ethyl (E,4S)-4-[[(2S)-3-(4-fluorophenyl)-2-[(2S)-3-methyl-2-[(5-methyl-1,2-oxazole-3-carbonyl)amino]butanoyl]oxypropanoyl]amino]-5-[(3S)-2-oxopyrrolidin-3-yl]pent-2-enoate

> <PUBCHEM_IUPAC_SYSTEMATIC_NAME>
ethyl (E,4S)-4-[[(2S)-3-(4-fluorophenyl)-2-[(2S)-3-methyl-2-[(5-methyl-1,2-oxazol-3-yl)carbonylamino]butanoyl]oxy-propanoyl]amino]-5-[(3S)-2-oxidanylidenepyrrolidin-3-yl]pent-2-enoate

> <PUBCHEM_IUPAC_TRADITIONAL_NAME>
(E,4S)-4-[[(2S)-3-(4-fluorophenyl)-2-[(2S)-3-methyl-2-[(5-methylisoxazole-3-carbonyl)amino]butanoyl]oxy-propanoyl]amino]-5-[(3S)-2-ketopyrrolidin-3-yl]pent-2-enoic acid ethyl ester

> <PUBCHEM_IUPAC_INCHI>
InChI=1S/C30H37FN4O8/c1-5-41-25(36)11-10-22(16-20-12-13-32-27(20)37)33-29(39)24(15-19-6-8-21(31)9-7-19)42-30(40)26(17(2)3)34-28(38)23-14-18(4)43-35-23/h6-11,14,17,20,22,24,26H,5,12-13,15-16H2,1-4H3,(H,32,37)(H,33,39)(H,34,38)/b11-10+/t20-,22+,24-,26-/m0/s1

> <PUBCHEM_IUPAC_INCHIKEY>
NOGZNKUJYKEFLY-YKZLWQQASA-N

> <PUBCHEM_XLOGP3_AA>
3.4

> <PUBCHEM_EXACT_MASS>
600.259542

> <PUBCHEM_MOLECULAR_FORMULA>
C30H37FN4O8

> <PUBCHEM_MOLECULAR_WEIGHT>
600.6

> <PUBCHEM_OPENEYE_CAN_SMILES>
CCOC(=O)C=CC(CC1CCNC1=O)NC(=O)C(CC2=CC=C(C=C2)F)OC(=O)C(C(C)C)NC(=O)C3=NOC(=C3)C

> <PUBCHEM_OPENEYE_ISO_SMILES>
CCOC(=O)/C=C/[C@H](C[C@@H]1CCNC1=O)NC(=O)[C@H](CC2=CC=C(C=C2)F)OC(=O)[C@H](C(C)C)NC(=O)C3=NOC(=C3)C

> <PUBCHEM_CACTVS_TPSA>
166

> <PUBCHEM_MONOISOTOPIC_WEIGHT>
600.259542

> <PUBCHEM_TOTAL_CHARGE>
0

> <PUBCHEM_HEAVY_ATOM_COUNT>
43

> <PUBCHEM_ATOM_DEF_STEREO_COUNT>
4

> <PUBCHEM_ATOM_UDEF_STEREO_COUNT>
0

> <PUBCHEM_BOND_DEF_STEREO_COUNT>
1

> <PUBCHEM_BOND_UDEF_STEREO_COUNT>
0

> <PUBCHEM_ISOTOPIC_ATOM_COUNT>
0

> <PUBCHEM_COMPONENT_COUNT>
1

> <PUBCHEM_CACTVS_TAUTO_COUNT>
-1

> <PUBCHEM_COORDINATE_TYPE>
1
5
255

> <PUBCHEM_BONDANNOTATIONS>
18  11  6
23  12  5
13  37  8
14  16  6
28  32  8
28  33  8
21  3  5
32  35  8
33  36  8
35  38  8
36  38  8
37  40  8
40  41  8
9  13  8
9  41  8

$$$$
6476897
  -OEChem-02212016592D

 81 83  0     1  0  0  0  0  0999 V2000
    5.3147   -5.5580    0.0000 F   0  0  0  0  0  0  0  0  0  0  0  0
    9.0062   -4.7216    0.0000 O   0  0  0  0  0  0  0  0  0  0  0  0
    7.0468   -2.5580    0.0000 O   0  0  0  0  0  0  0  0  0  0  0  0
    4.4487   -0.0580    0.0000 O   0  0  0  0  0  0  0  0  0  0  0  0
   11.3769   -0.0580    0.0000 O   0  0  0  0  0  0  0  0  0  0  0  0
   10.5109    1.4420    0.0000 O   0  0  0  0  0  0  0  0  0  0  0  0
    5.3147    3.4420    0.0000 O   0  0  0  0  0  0  0  0  0  0  0  0
    2.0000    3.7784    0.0000 O   0  0  0  0  0  0  0  0  0  0  0  0
   10.7275   -4.2604    0.0000 N   0  0  0  0  0  0  0  0  0  0  0  0
    7.9128   -1.0580    0.0000 N   0  0  0  0  0  0  0  0  0  0  0  0
    6.1808   -0.0580    0.0000 N   0  0  0  0  0  0  0  0  0  0  0  0
    4.4487    1.9420    0.0000 N   0  0  0  0  0  0  0  0  0  0  0  0
    2.6691    3.0353    0.0000 N   0  0  0  0  0  0  0  0  0  0  0  0
    9.6448   -3.0580    0.0000 C   0  0  2  0  0  0  0  0  0  0  0  0
    8.7788   -2.5580    0.0000 C   0  0  0  0  0  0  0  0  0  0  0  0
   10.5584   -2.6512    0.0000 C   0  0  0  0  0  0  0  0  0  0  0  0
    8.7788   -1.5580    0.0000 C   0  0  1  0  0  0  0  0  0  0  0  0
   11.2275   -3.3944    0.0000 C   0  0  0  0  0  0  0  0  0  0  0  0
    9.7494   -4.0525    0.0000 C   0  0  0  0  0  0  0  0  0  0  0  0
    6.1808   -1.0580    0.0000 C   0  0  2  0  0  0  0  0  0  0  0  0
    9.6448   -1.0580    0.0000 C   0  0  0  0  0  0  0  0  0  0  0  0
    7.0468   -1.5580    0.0000 C   0  0  0  0  0  0  0  0  0  0  0  0
    5.3147    1.4420    0.0000 C   0  0  1  0  0  0  0  0  0  0  0  0
    5.3147   -1.5580    0.0000 C   0  0  0  0  0  0  0  0  0  0  0  0
    6.1808    1.9420    0.0000 C   0  0  0  0  0  0  0  0  0  0  0  0
    5.3147    0.4420    0.0000 C   0  0  0  0  0  0  0  0  0  0  0  0
    9.6448   -0.0580    0.0000 C   0  0  0  0  0  0  0  0  0  0  0  0
    5.3147   -2.5580    0.0000 C   0  0  0  0  0  0  0  0  0  0  0  0
    6.1808    2.9420    0.0000 C   0  0  0  0  0  0  0  0  0  0  0  0
    7.0468    1.4420    0.0000 C   0  0  0  0  0  0  0  0  0  0  0  0
    6.1808   -3.0580    0.0000 C   0  0  0  0  0  0  0  0  0  0  0  0
    4.4487   -3.0580    0.0000 C   0  0  0  0  0  0  0  0  0  0  0  0
   10.5109    0.4420    0.0000 C   0  0  0  0  0  0  0  0  0  0  0  0
    4.4487    2.9420    0.0000 C   0  0  0  0  0  0  0  0  0  0  0  0
    6.1808   -4.0580    0.0000 C   0  0  0  0  0  0  0  0  0  0  0  0
    4.4487   -4.0580    0.0000 C   0  0  0  0  0  0  0  0  0  0  0  0
    3.5827    3.4420    0.0000 C   0  0  0  0  0  0  0  0  0  0  0  0
    5.3147   -4.5580    0.0000 C   0  0  0  0  0  0  0  0  0  0  0  0
    3.4782    4.4365    0.0000 C   0  0  0  0  0  0  0  0  0  0  0  0
   12.2429    0.4420    0.0000 C   0  0  0  0  0  0  0  0  0  0  0  0
    2.5000    4.6444    0.0000 C   0  0  0  0  0  0  0  0  0  0  0  0
   13.1090   -0.0580    0.0000 C   0  0  0  0  0  0  0  0  0  0  0  0
    2.0933    5.5580    0.0000 C   0  0  0  0  0  0  0  0  0  0  0  0
    9.1249   -3.3957    0.0000 H   0  0  0  0  0  0  0  0  0  0  0  0
    8.1682   -2.4503    0.0000 H   0  0  0  0  0  0  0  0  0  0  0  0
    8.5668   -3.1406    0.0000 H   0  0  0  0  0  0  0  0  0  0  0  0
   11.0600   -2.2868    0.0000 H   0  0  0  0  0  0  0  0  0  0  0  0
   10.2484   -2.1143    0.0000 H   0  0  0  0  0  0  0  0  0  0  0  0
    8.2419   -1.8680    0.0000 H   0  0  0  0  0  0  0  0  0  0  0  0
   11.7291   -3.7588    0.0000 H   0  0  0  0  0  0  0  0  0  0  0  0
   11.6424   -2.9336    0.0000 H   0  0  0  0  0  0  0  0  0  0  0  0
   10.9797   -4.8268    0.0000 H   0  0  0  0  0  0  0  0  0  0  0  0
    7.9128   -0.4380    0.0000 H   0  0  0  0  0  0  0  0  0  0  0  0
    6.7177   -0.7480    0.0000 H   0  0  0  0  0  0  0  0  0  0  0  0
   10.1818   -1.3680    0.0000 H   0  0  0  0  0  0  0  0  0  0  0  0
    5.3147    2.0620    0.0000 H   0  0  0  0  0  0  0  0  0  0  0  0
    5.1027   -0.9754    0.0000 H   0  0  0  0  0  0  0  0  0  0  0  0
    4.7042   -1.6656    0.0000 H   0  0  0  0  0  0  0  0  0  0  0  0
    6.1808    1.3220    0.0000 H   0  0  0  0  0  0  0  0  0  0  0  0
    6.7177    0.2520    0.0000 H   0  0  0  0  0  0  0  0  0  0  0  0
    9.1079    0.2520    0.0000 H   0  0  0  0  0  0  0  0  0  0  0  0
    6.8008    2.9420    0.0000 H   0  0  0  0  0  0  0  0  0  0  0  0
    6.1808    3.5620    0.0000 H   0  0  0  0  0  0  0  0  0  0  0  0
    5.5608    2.9420    0.0000 H   0  0  0  0  0  0  0  0  0  0  0  0
    6.7368    0.9051    0.0000 H   0  0  0  0  0  0  0  0  0  0  0  0
    7.5837    1.1320    0.0000 H   0  0  0  0  0  0  0  0  0  0  0  0
    7.3568    1.9790    0.0000 H   0  0  0  0  0  0  0  0  0  0  0  0
    3.9118    1.6320    0.0000 H   0  0  0  0  0  0  0  0  0  0  0  0
    6.7177   -2.7480    0.0000 H   0  0  0  0  0  0  0  0  0  0  0  0
    3.9118   -2.7480    0.0000 H   0  0  0  0  0  0  0  0  0  0  0  0
    6.7177   -4.3680    0.0000 H   0  0  0  0  0  0  0  0  0  0  0  0
    3.9118   -4.3680    0.0000 H   0  0  0  0  0  0  0  0  0  0  0  0
    3.9389    4.8514    0.0000 H   0  0  0  0  0  0  0  0  0  0  0  0
   12.6415    0.9170    0.0000 H   0  0  0  0  0  0  0  0  0  0  0  0
   11.8444    0.9170    0.0000 H   0  0  0  0  0  0  0  0  0  0  0  0
   12.7990   -0.5949    0.0000 H   0  0  0  0  0  0  0  0  0  0  0  0
   13.6459   -0.3680    0.0000 H   0  0  0  0  0  0  0  0  0  0  0  0
   13.4190    0.4789    0.0000 H   0  0  0  0  0  0  0  0  0  0  0  0
    2.6597    5.8102    0.0000 H   0  0  0  0  0  0  0  0  0  0  0  0
    1.8411    6.1244    0.0000 H   0  0  0  0  0  0  0  0  0  0  0  0
    1.5269    5.3058    0.0000 H   0  0  0  0  0  0  0  0  0  0  0  0
  1 38  1  0  0  0  0
  2 19  2  0  0  0  0
  3 22  2  0  0  0  0
  4 26  2  0  0  0  0
  5 33  1  0  0  0  0
  5 40  1  0  0  0  0
  6 33  2  0  0  0  0
  7 34  2  0  0  0  0
  8 13  1  0  0  0  0
  8 41  1  0  0  0  0
  9 18  1  0  0  0  0
  9 19  1  0  0  0  0
  9 52  1  0  0  0  0
 17 10  1  6  0  0  0
 10 22  1  0  0  0  0
 10 53  1  0  0  0  0
 20 11  1  6  0  0  0
 11 26  1  0  0  0  0
 11 60  1  0  0  0  0
 23 12  1  1  0  0  0
 12 34  1  0  0  0  0
 12 68  1  0  0  0  0
 13 37  2  0  0  0  0
 14 15  1  6  0  0  0
 14 16  1  0  0  0  0
 14 19  1  0  0  0  0
 14 44  1  0  0  0  0
 15 17  1  0  0  0  0
 15 45  1  0  0  0  0
 15 46  1  0  0  0  0
 16 18  1  0  0  0  0
 16 47  1  0  0  0  0
 16 48  1  0  0  0  0
 17 21  1  0  0  0  0
 17 49  1  0  0  0  0
 18 50  1  0  0  0  0
 18 51  1  0  0  0  0
 20 22  1  0  0  0  0
 20 24  1  0  0  0  0
 20 54  1  0  0  0  0
 21 27  2  0  0  0  0
 21 55  1  0  0  0  0
 23 25  1  0  0  0  0
 23 26  1  0  0  0  0
 23 56  1  0  0  0  0
 24 28  1  0  0  0  0
 24 57  1  0  0  0  0
 24 58  1  0  0  0  0
 25 29  1  0  0  0  0
 25 30  1  0  0  0  0
 25 59  1  0  0  0  0
 27 33  1  0  0  0  0
 27 61  1  0  0  0  0
 28 31  2  0  0  0  0
 28 32  1  0  0  0  0
 29 62  1  0  0  0  0
 29 63  1  0  0  0  0
 29 64  1  0  0  0  0
 30 65  1  0  0  0  0
 30 66  1  0  0  0  0
 30 67  1  0  0  0  0
 31 35  1  0  0  0  0
 31 69  1  0  0  0  0
 32 36  2  0  0  0  0
 32 70  1  0  0  0  0
 34 37  1  0  0  0  0
 35 38  2  0  0  0  0
 35 71  1  0  0  0  0
 36 38  1  0  0  0  0
 36 72  1  0  0  0  0
 37 39  1  0  0  0  0
 39 41  2  0  0  0  0
 39 73  1  0  0  0  0
 40 42  1  0  0  0  0
 40 74  1  0  0  0  0
 40 75  1  0  0  0  0
 41 43  1  0  0  0  0
 42 76  1  0  0  0  0
 42 77  1  0  0  0  0
 42 78  1  0  0  0  0
 43 79  1  0  0  0  0
 43 80  1  0  0  0  0
 43 81  1  0  0  0  0
M  END
> <PUBCHEM_COMPOUND_CID>
6476897

> <PUBCHEM_COMPOUND_CANONICALIZED>
1

> <PUBCHEM_CACTVS_COMPLEXITY>
1020

> <PUBCHEM_CACTVS_HBOND_ACCEPTOR>
9

> <PUBCHEM_CACTVS_HBOND_DONOR>
4

> <PUBCHEM_CACTVS_ROTATABLE_BOND>
15

> <PUBCHEM_CACTVS_SUBSKEYS>
AAADcfB7uQAAAAAAAAAAAAAAAAAAAWLAAAAwAAAAAAAAAAABwAAAHwAUAAAADSzhng4yjJLQBACpA6XyWgCCAAAmIgAomKG+bNoIZjqAtbOWMYhmlhiI6cc/iICOAAAAAAAAAAAAAAAAAAAAAAAAAAAAAA==

> <PUBCHEM_IUPAC_OPENEYE_NAME>
ethyl (E,4S)-4-[[(2S)-3-(4-fluorophenyl)-2-[[(2S)-3-methyl-2-[(5-methylisoxazole-3-carbonyl)amino]butanoyl]amino]propanoyl]amino]-5-[(3S)-2-oxopyrrolidin-3-yl]pent-2-enoate

> <PUBCHEM_IUPAC_CAS_NAME>
(E,4S)-4-[[(2S)-3-(4-fluorophenyl)-2-[[(2S)-3-methyl-2-[[(5-methyl-3-isoxazolyl)-oxomethyl]amino]-1-oxobutyl]amino]-1-oxopropyl]amino]-5-[(3S)-2-oxo-3-pyrrolidinyl]-2-pentenoic acid ethyl ester

> <PUBCHEM_IUPAC_NAME_MARKUP>
ethyl (<I>E</I>,4<I>S</I>)-4-[[(2<I>S</I>)-3-(4-fluorophenyl)-2-[[(2<I>S</I>)-3-methyl-2-[(5-methyl-1,2-oxazole-3-carbonyl)amino]butanoyl]amino]propanoyl]amino]-5-[(3<I>S</I>)-2-oxopyrrolidin-3-yl]pent-2-enoate

> <PUBCHEM_IUPAC_NAME>
ethyl (E,4S)-4-[[(2S)-3-(4-fluorophenyl)-2-[[(2S)-3-methyl-2-[(5-methyl-1,2-oxazole-3-carbonyl)amino]butanoyl]amino]propanoyl]amino]-5-[(3S)-2-oxopyrrolidin-3-yl]pent-2-enoate

> <PUBCHEM_IUPAC_SYSTEMATIC_NAME>
ethyl (E,4S)-4-[[(2S)-3-(4-fluorophenyl)-2-[[(2S)-3-methyl-2-[(5-methyl-1,2-oxazol-3-yl)carbonylamino]butanoyl]amino]propanoyl]amino]-5-[(3S)-2-oxidanylidenepyrrolidin-3-yl]pent-2-enoate

> <PUBCHEM_IUPAC_TRADITIONAL_NAME>
(E,4S)-4-[[(2S)-3-(4-fluorophenyl)-2-[[(2S)-3-methyl-2-[(5-methylisoxazole-3-carbonyl)amino]butanoyl]amino]propanoyl]amino]-5-[(3S)-2-ketopyrrolidin-3-yl]pent-2-enoic acid ethyl ester

> <PUBCHEM_IUPAC_INCHI>
InChI=1S/C30H38FN5O7/c1-5-42-25(37)11-10-22(16-20-12-13-32-27(20)38)33-28(39)23(15-19-6-8-21(31)9-7-19)34-30(41)26(17(2)3)35-29(40)24-14-18(4)43-36-24/h6-11,14,17,20,22-23,26H,5,12-13,15-16H2,1-4H3,(H,32,38)(H,33,39)(H,34,41)(H,35,40)/b11-10+/t20-,22+,23-,26-/m0/s1

> <PUBCHEM_IUPAC_INCHIKEY>
JSJRYDPMCHPLOL-LTXGZIODSA-N

> <PUBCHEM_XLOGP3_AA>
2.8

> <PUBCHEM_EXACT_MASS>
599.275527

> <PUBCHEM_MOLECULAR_FORMULA>
C30H38FN5O7

> <PUBCHEM_MOLECULAR_WEIGHT>
599.6

> <PUBCHEM_OPENEYE_CAN_SMILES>
CCOC(=O)C=CC(CC1CCNC1=O)NC(=O)C(CC2=CC=C(C=C2)F)NC(=O)C(C(C)C)NC(=O)C3=NOC(=C3)C

> <PUBCHEM_OPENEYE_ISO_SMILES>
CCOC(=O)/C=C/[C@H](C[C@@H]1CCNC1=O)NC(=O)[C@H](CC2=CC=C(C=C2)F)NC(=O)[C@H](C(C)C)NC(=O)C3=NOC(=C3)C

> <PUBCHEM_CACTVS_TPSA>
169

> <PUBCHEM_MONOISOTOPIC_WEIGHT>
599.275527

> <PUBCHEM_TOTAL_CHARGE>
0

> <PUBCHEM_HEAVY_ATOM_COUNT>
43

> <PUBCHEM_ATOM_DEF_STEREO_COUNT>
4

> <PUBCHEM_ATOM_UDEF_STEREO_COUNT>
0

> <PUBCHEM_BOND_DEF_STEREO_COUNT>
1

> <PUBCHEM_BOND_UDEF_STEREO_COUNT>
0

> <PUBCHEM_ISOTOPIC_ATOM_COUNT>
0

> <PUBCHEM_COMPONENT_COUNT>
1

> <PUBCHEM_CACTVS_TAUTO_COUNT>
-1

> <PUBCHEM_COORDINATE_TYPE>
1
5
255

> <PUBCHEM_BONDANNOTATIONS>
17  10  6
20  11  6
23  12  5
13  37  8
14  15  6
28  31  8
28  32  8
31  35  8
32  36  8
35  38  8
36  38  8
37  39  8
39  41  8
8  13  8
8  41  8

$$$$
6477668
  -OEChem-02212016592D

 74 76  0     1  0  0  0  0  0999 V2000
    7.0468   -2.7480    0.0000 O   0  0  0  0  0  0  0  0  0  0  0  0
    4.4487   -0.2480    0.0000 O   0  0  0  0  0  0  0  0  0  0  0  0
    8.7788   -4.7480    0.0000 O   0  0  0  0  0  0  0  0  0  0  0  0
   12.2429   -1.7480    0.0000 O   0  0  0  0  0  0  0  0  0  0  0  0
    5.3147    3.2520    0.0000 O   0  0  0  0  0  0  0  0  0  0  0  0
   11.3769   -0.2480    0.0000 O   0  0  0  0  0  0  0  0  0  0  0  0
    2.0000    3.5884    0.0000 O   0  0  0  0  0  0  0  0  0  0  0  0
    6.1808   -0.2480    0.0000 N   0  0  0  0  0  0  0  0  0  0  0  0
    7.9128   -1.2480    0.0000 N   0  0  0  0  0  0  0  0  0  0  0  0
    4.4487    1.7520    0.0000 N   0  0  0  0  0  0  0  0  0  0  0  0
   10.5109   -4.7480    0.0000 N   0  0  0  0  0  0  0  0  0  0  0  0
    2.6691    2.8453    0.0000 N   0  0  0  0  0  0  0  0  0  0  0  0
    6.1808   -1.2480    0.0000 C   0  0  1  0  0  0  0  0  0  0  0  0
    5.3147   -1.7480    0.0000 C   0  0  0  0  0  0  0  0  0  0  0  0
    8.7788   -1.7480    0.0000 C   0  0  1  0  0  0  0  0  0  0  0  0
    7.0468   -1.7480    0.0000 C   0  0  0  0  0  0  0  0  0  0  0  0
    8.7788   -2.7480    0.0000 C   0  0  0  0  0  0  0  0  0  0  0  0
    5.3147   -2.7480    0.0000 C   0  0  0  0  0  0  0  0  0  0  0  0
    5.3147    0.2520    0.0000 C   0  0  0  0  0  0  0  0  0  0  0  0
    7.0468    0.2520    0.0000 C   0  0  0  0  0  0  0  0  0  0  0  0
    5.3147    1.2520    0.0000 C   0  0  0  0  0  0  0  0  0  0  0  0
    9.6448   -3.2480    0.0000 C   0  0  0  0  0  0  0  0  0  0  0  0
    6.1808    1.7520    0.0000 C   0  0  0  0  0  0  0  0  0  0  0  0
    9.6448   -1.2480    0.0000 C   0  0  0  0  0  0  0  0  0  0  0  0
    7.0468    1.2520    0.0000 C   0  0  0  0  0  0  0  0  0  0  0  0
    4.4487   -3.2480    0.0000 C   0  0  0  0  0  0  0  0  0  0  0  0
    6.1808   -3.2480    0.0000 C   0  0  0  0  0  0  0  0  0  0  0  0
    6.1808    2.7520    0.0000 C   0  0  0  0  0  0  0  0  0  0  0  0
    9.6448   -4.2480    0.0000 C   0  0  0  0  0  0  0  0  0  0  0  0
    4.4487   -4.2480    0.0000 C   0  0  0  0  0  0  0  0  0  0  0  0
    6.1808   -4.2480    0.0000 C   0  0  0  0  0  0  0  0  0  0  0  0
   10.5109   -1.7480    0.0000 C   0  0  0  0  0  0  0  0  0  0  0  0
    5.3147   -4.7480    0.0000 C   0  0  0  0  0  0  0  0  0  0  0  0
    4.4487    2.7520    0.0000 C   0  0  0  0  0  0  0  0  0  0  0  0
   11.3769   -1.2480    0.0000 C   0  0  0  0  0  0  0  0  0  0  0  0
    3.5827    3.2520    0.0000 C   0  0  0  0  0  0  0  0  0  0  0  0
    3.4782    4.2465    0.0000 C   0  0  0  0  0  0  0  0  0  0  0  0
    2.5000    4.4544    0.0000 C   0  0  0  0  0  0  0  0  0  0  0  0
   13.1090   -1.2480    0.0000 C   0  0  0  0  0  0  0  0  0  0  0  0
    2.0933    5.3680    0.0000 C   0  0  0  0  0  0  0  0  0  0  0  0
   13.9750   -1.7480    0.0000 C   0  0  0  0  0  0  0  0  0  0  0  0
    6.7177   -0.9380    0.0000 H   0  0  0  0  0  0  0  0  0  0  0  0
    5.1027   -1.1654    0.0000 H   0  0  0  0  0  0  0  0  0  0  0  0
    4.7042   -1.8556    0.0000 H   0  0  0  0  0  0  0  0  0  0  0  0
    8.2419   -2.0580    0.0000 H   0  0  0  0  0  0  0  0  0  0  0  0
    7.9128   -0.6280    0.0000 H   0  0  0  0  0  0  0  0  0  0  0  0
    8.1682   -2.6403    0.0000 H   0  0  0  0  0  0  0  0  0  0  0  0
    8.5668   -3.3306    0.0000 H   0  0  0  0  0  0  0  0  0  0  0  0
    7.5837   -0.0580    0.0000 H   0  0  0  0  0  0  0  0  0  0  0  0
   10.2554   -3.3556    0.0000 H   0  0  0  0  0  0  0  0  0  0  0  0
    9.8569   -2.6654    0.0000 H   0  0  0  0  0  0  0  0  0  0  0  0
    9.6448   -0.6280    0.0000 H   0  0  0  0  0  0  0  0  0  0  0  0
    7.5837    1.5620    0.0000 H   0  0  0  0  0  0  0  0  0  0  0  0
    3.9118   -2.9380    0.0000 H   0  0  0  0  0  0  0  0  0  0  0  0
    6.7177   -2.9380    0.0000 H   0  0  0  0  0  0  0  0  0  0  0  0
    6.8008    2.7520    0.0000 H   0  0  0  0  0  0  0  0  0  0  0  0
    6.1808    3.3720    0.0000 H   0  0  0  0  0  0  0  0  0  0  0  0
    5.5608    2.7520    0.0000 H   0  0  0  0  0  0  0  0  0  0  0  0
    3.9118    1.4420    0.0000 H   0  0  0  0  0  0  0  0  0  0  0  0
    3.9118   -4.5580    0.0000 H   0  0  0  0  0  0  0  0  0  0  0  0
    6.7177   -4.5580    0.0000 H   0  0  0  0  0  0  0  0  0  0  0  0
   10.5109   -2.3680    0.0000 H   0  0  0  0  0  0  0  0  0  0  0  0
    5.3147   -5.3680    0.0000 H   0  0  0  0  0  0  0  0  0  0  0  0
   10.5109   -5.3680    0.0000 H   0  0  0  0  0  0  0  0  0  0  0  0
   11.0478   -4.4380    0.0000 H   0  0  0  0  0  0  0  0  0  0  0  0
    3.9389    4.6614    0.0000 H   0  0  0  0  0  0  0  0  0  0  0  0
   13.5075   -0.7730    0.0000 H   0  0  0  0  0  0  0  0  0  0  0  0
   12.7104   -0.7730    0.0000 H   0  0  0  0  0  0  0  0  0  0  0  0
    2.6597    5.6202    0.0000 H   0  0  0  0  0  0  0  0  0  0  0  0
    1.8411    5.9344    0.0000 H   0  0  0  0  0  0  0  0  0  0  0  0
    1.5269    5.1158    0.0000 H   0  0  0  0  0  0  0  0  0  0  0  0
   13.6650   -2.2849    0.0000 H   0  0  0  0  0  0  0  0  0  0  0  0
   14.5119   -2.0580    0.0000 H   0  0  0  0  0  0  0  0  0  0  0  0
   14.2850   -1.2110    0.0000 H   0  0  0  0  0  0  0  0  0  0  0  0
  1 16  2  0  0  0  0
  2 19  2  0  0  0  0
  3 29  2  0  0  0  0
  4 35  1  0  0  0  0
  4 39  1  0  0  0  0
  5 34  2  0  0  0  0
  6 35  2  0  0  0  0
  7 12  1  0  0  0  0
  7 38  1  0  0  0  0
  8 13  1  0  0  0  0
  8 19  1  0  0  0  0
  8 20  1  0  0  0  0
 15  9  1  6  0  0  0
  9 16  1  0  0  0  0
  9 46  1  0  0  0  0
 10 21  1  0  0  0  0
 10 34  1  0  0  0  0
 10 59  1  0  0  0  0
 11 29  1  0  0  0  0
 11 64  1  0  0  0  0
 11 65  1  0  0  0  0
 12 36  2  0  0  0  0
 13 14  1  0  0  0  0
 13 16  1  6  0  0  0
 13 42  1  0  0  0  0
 14 18  1  0  0  0  0
 14 43  1  0  0  0  0
 14 44  1  0  0  0  0
 15 17  1  0  0  0  0
 15 24  1  0  0  0  0
 15 45  1  0  0  0  0
 17 22  1  0  0  0  0
 17 47  1  0  0  0  0
 17 48  1  0  0  0  0
 18 26  2  0  0  0  0
 18 27  1  0  0  0  0
 19 21  1  0  0  0  0
 20 25  2  0  0  0  0
 20 49  1  0  0  0  0
 21 23  2  0  0  0  0
 22 29  1  0  0  0  0
 22 50  1  0  0  0  0
 22 51  1  0  0  0  0
 23 25  1  0  0  0  0
 23 28  1  0  0  0  0
 24 32  2  0  0  0  0
 24 52  1  0  0  0  0
 25 53  1  0  0  0  0
 26 30  1  0  0  0  0
 26 54  1  0  0  0  0
 27 31  2  0  0  0  0
 27 55  1  0  0  0  0
 28 56  1  0  0  0  0
 28 57  1  0  0  0  0
 28 58  1  0  0  0  0
 30 33  2  0  0  0  0
 30 60  1  0  0  0  0
 31 33  1  0  0  0  0
 31 61  1  0  0  0  0
 32 35  1  0  0  0  0
 32 62  1  0  0  0  0
 33 63  1  0  0  0  0
 34 36  1  0  0  0  0
 36 37  1  0  0  0  0
 37 38  2  0  0  0  0
 37 66  1  0  0  0  0
 38 40  1  0  0  0  0
 39 41  1  0  0  0  0
 39 67  1  0  0  0  0
 39 68  1  0  0  0  0
 40 69  1  0  0  0  0
 40 70  1  0  0  0  0
 40 71  1  0  0  0  0
 41 72  1  0  0  0  0
 41 73  1  0  0  0  0
 41 74  1  0  0  0  0
M  END
> <PUBCHEM_COMPOUND_CID>
6477668

> <PUBCHEM_COMPOUND_CANONICALIZED>
1

> <PUBCHEM_CACTVS_COMPLEXITY>
1080

> <PUBCHEM_CACTVS_HBOND_ACCEPTOR>
8

> <PUBCHEM_CACTVS_HBOND_DONOR>
3

> <PUBCHEM_CACTVS_ROTATABLE_BOND>
14

> <PUBCHEM_CACTVS_SUBSKEYS>
AAADcfB7uAAAAAAAAAAAAAAAAAAAAWAAAAAwQAAAAAAAAAABwAAAHgAUAAAADCzhngYyjJPQBACpA6X2WgCCAAAmIgAomKG+bNoIZjqAtbOWMYhmlhiI6cc/iICOAAAAAAAAAAAAAAAAAAAAAAAAAAAAAA==

> <PUBCHEM_IUPAC_OPENEYE_NAME>
ethyl (E,4S)-7-amino-4-[[(2S)-2-[4-methyl-3-[(5-methylisoxazole-3-carbonyl)amino]-2-oxo-1-pyridyl]-3-phenyl-propanoyl]amino]-7-oxo-hept-2-enoate

> <PUBCHEM_IUPAC_CAS_NAME>
(E,4S)-7-amino-4-[[(2S)-2-[4-methyl-3-[[(5-methyl-3-isoxazolyl)-oxomethyl]amino]-2-oxo-1-pyridinyl]-1-oxo-3-phenylpropyl]amino]-7-oxo-2-heptenoic acid ethyl ester

> <PUBCHEM_IUPAC_NAME_MARKUP>
ethyl (<I>E</I>,4<I>S</I>)-7-amino-4-[[(2<I>S</I>)-2-[4-methyl-3-[(5-methyl-1,2-oxazole-3-carbonyl)amino]-2-oxopyridin-1-yl]-3-phenylpropanoyl]amino]-7-oxohept-2-enoate

> <PUBCHEM_IUPAC_NAME>
ethyl (E,4S)-7-amino-4-[[(2S)-2-[4-methyl-3-[(5-methyl-1,2-oxazole-3-carbonyl)amino]-2-oxopyridin-1-yl]-3-phenylpropanoyl]amino]-7-oxohept-2-enoate

> <PUBCHEM_IUPAC_SYSTEMATIC_NAME>
ethyl (E,4S)-7-azanyl-4-[[(2S)-2-[4-methyl-3-[(5-methyl-1,2-oxazol-3-yl)carbonylamino]-2-oxidanylidene-pyridin-1-yl]-3-phenyl-propanoyl]amino]-7-oxidanylidene-hept-2-enoate

> <PUBCHEM_IUPAC_TRADITIONAL_NAME>
(E,4S)-7-amino-7-keto-4-[[(2S)-2-[2-keto-4-methyl-3-[(5-methylisoxazole-3-carbonyl)amino]-1-pyridyl]-3-phenyl-propanoyl]amino]hept-2-enoic acid ethyl ester

> <PUBCHEM_IUPAC_INCHI>
InChI=1S/C29H33N5O7/c1-4-40-25(36)13-11-21(10-12-24(30)35)31-28(38)23(17-20-8-6-5-7-9-20)34-15-14-18(2)26(29(34)39)32-27(37)22-16-19(3)41-33-22/h5-9,11,13-16,21,23H,4,10,12,17H2,1-3H3,(H2,30,35)(H,31,38)(H,32,37)/b13-11+/t21-,23-/m0/s1

> <PUBCHEM_IUPAC_INCHIKEY>
PMLXJMVSESGFEC-QYPCTLPZSA-N

> <PUBCHEM_XLOGP3_AA>
1.6

> <PUBCHEM_EXACT_MASS>
563.237998

> <PUBCHEM_MOLECULAR_FORMULA>
C29H33N5O7

> <PUBCHEM_MOLECULAR_WEIGHT>
563.6

> <PUBCHEM_OPENEYE_CAN_SMILES>
CCOC(=O)C=CC(CCC(=O)N)NC(=O)C(CC1=CC=CC=C1)N2C=CC(=C(C2=O)NC(=O)C3=NOC(=C3)C)C

> <PUBCHEM_OPENEYE_ISO_SMILES>
CCOC(=O)/C=C/[C@H](CCC(=O)N)NC(=O)[C@H](CC1=CC=CC=C1)N2C=CC(=C(C2=O)NC(=O)C3=NOC(=C3)C)C

> <PUBCHEM_CACTVS_TPSA>
174

> <PUBCHEM_MONOISOTOPIC_WEIGHT>
563.237998

> <PUBCHEM_TOTAL_CHARGE>
0

> <PUBCHEM_HEAVY_ATOM_COUNT>
41

> <PUBCHEM_ATOM_DEF_STEREO_COUNT>
2

> <PUBCHEM_ATOM_UDEF_STEREO_COUNT>
0

> <PUBCHEM_BOND_DEF_STEREO_COUNT>
1

> <PUBCHEM_BOND_UDEF_STEREO_COUNT>
0

> <PUBCHEM_ISOTOPIC_ATOM_COUNT>
0

> <PUBCHEM_COMPONENT_COUNT>
1

> <PUBCHEM_CACTVS_TAUTO_COUNT>
-1

> <PUBCHEM_COORDINATE_TYPE>
1
5
255

> <PUBCHEM_BONDANNOTATIONS>
12  36  8
13  16  6
18  26  8
18  27  8
19  21  8
20  25  8
21  23  8
23  25  8
26  30  8
27  31  8
30  33  8
31  33  8
36  37  8
37  38  8
7  12  8
7  38  8
8  19  8
8  20  8
15  9  6

$$$$
6477669
  -OEChem-02212016592D

 75 78  0     1  0  0  0  0  0999 V2000
    5.3147   -5.5580    0.0000 F   0  0  0  0  0  0  0  0  0  0  0  0
   10.7663   -1.6731    0.0000 O   0  0  0  0  0  0  0  0  0  0  0  0
    7.0468   -2.5580    0.0000 O   0  0  0  0  0  0  0  0  0  0  0  0
    4.4487   -0.0580    0.0000 O   0  0  0  0  0  0  0  0  0  0  0  0
   10.5109    1.4420    0.0000 O   0  0  0  0  0  0  0  0  0  0  0  0
   11.3769   -0.0580    0.0000 O   0  0  0  0  0  0  0  0  0  0  0  0
    5.3147    3.4420    0.0000 O   0  0  0  0  0  0  0  0  0  0  0  0
    2.0000    3.7784    0.0000 O   0  0  0  0  0  0  0  0  0  0  0  0
   11.2275   -3.3944    0.0000 N   0  0  0  0  0  0  0  0  0  0  0  0
    7.9128   -1.0580    0.0000 N   0  0  0  0  0  0  0  0  0  0  0  0
    6.1808   -0.0580    0.0000 N   0  0  0  0  0  0  0  0  0  0  0  0
    4.4487    1.9420    0.0000 N   0  0  0  0  0  0  0  0  0  0  0  0
    2.6691    3.0353    0.0000 N   0  0  0  0  0  0  0  0  0  0  0  0
    9.6448   -3.0580    0.0000 C   0  0  2  0  0  0  0  0  0  0  0  0
    8.7788   -2.5580    0.0000 C   0  0  0  0  0  0  0  0  0  0  0  0
    9.7494   -4.0525    0.0000 C   0  0  0  0  0  0  0  0  0  0  0  0
    8.7788   -1.5580    0.0000 C   0  0  1  0  0  0  0  0  0  0  0  0
   10.7275   -4.2604    0.0000 C   0  0  0  0  0  0  0  0  0  0  0  0
   10.5584   -2.6512    0.0000 C   0  0  0  0  0  0  0  0  0  0  0  0
    6.1808   -1.0580    0.0000 C   0  0  2  0  0  0  0  0  0  0  0  0
    9.6448   -1.0580    0.0000 C   0  0  0  0  0  0  0  0  0  0  0  0
    7.0468   -1.5580    0.0000 C   0  0  0  0  0  0  0  0  0  0  0  0
    5.3147   -1.5580    0.0000 C   0  0  0  0  0  0  0  0  0  0  0  0
    9.6448   -0.0580    0.0000 C   0  0  0  0  0  0  0  0  0  0  0  0
    5.3147   -2.5580    0.0000 C   0  0  0  0  0  0  0  0  0  0  0  0
    5.3147    0.4420    0.0000 C   0  0  0  0  0  0  0  0  0  0  0  0
    7.0468    0.4420    0.0000 C   0  0  0  0  0  0  0  0  0  0  0  0
    5.3147    1.4420    0.0000 C   0  0  0  0  0  0  0  0  0  0  0  0
    6.1808   -3.0580    0.0000 C   0  0  0  0  0  0  0  0  0  0  0  0
    4.4487   -3.0580    0.0000 C   0  0  0  0  0  0  0  0  0  0  0  0
    7.0468    1.4420    0.0000 C   0  0  0  0  0  0  0  0  0  0  0  0
   10.5109    0.4420    0.0000 C   0  0  0  0  0  0  0  0  0  0  0  0
    6.1808    1.9420    0.0000 C   0  0  0  0  0  0  0  0  0  0  0  0
    6.1808   -4.0580    0.0000 C   0  0  0  0  0  0  0  0  0  0  0  0
    4.4487   -4.0580    0.0000 C   0  0  0  0  0  0  0  0  0  0  0  0
    5.3147   -4.5580    0.0000 C   0  0  0  0  0  0  0  0  0  0  0  0
    4.4487    2.9420    0.0000 C   0  0  0  0  0  0  0  0  0  0  0  0
   11.3769    1.9420    0.0000 C   0  0  0  0  0  0  0  0  0  0  0  0
    3.5827    3.4420    0.0000 C   0  0  0  0  0  0  0  0  0  0  0  0
   11.3769    2.9420    0.0000 C   0  0  0  0  0  0  0  0  0  0  0  0
    3.4782    4.4365    0.0000 C   0  0  0  0  0  0  0  0  0  0  0  0
    2.5000    4.6444    0.0000 C   0  0  0  0  0  0  0  0  0  0  0  0
    2.0933    5.5580    0.0000 C   0  0  0  0  0  0  0  0  0  0  0  0
    9.1249   -3.3957    0.0000 H   0  0  0  0  0  0  0  0  0  0  0  0
    8.1682   -2.4503    0.0000 H   0  0  0  0  0  0  0  0  0  0  0  0
    8.5668   -3.1406    0.0000 H   0  0  0  0  0  0  0  0  0  0  0  0
    9.1294   -4.0525    0.0000 H   0  0  0  0  0  0  0  0  0  0  0  0
    9.6846   -4.6691    0.0000 H   0  0  0  0  0  0  0  0  0  0  0  0
    8.2419   -1.8680    0.0000 H   0  0  0  0  0  0  0  0  0  0  0  0
   10.5359   -4.8501    0.0000 H   0  0  0  0  0  0  0  0  0  0  0  0
   11.2939   -4.5126    0.0000 H   0  0  0  0  0  0  0  0  0  0  0  0
   11.8441   -3.3296    0.0000 H   0  0  0  0  0  0  0  0  0  0  0  0
    7.9128   -0.4380    0.0000 H   0  0  0  0  0  0  0  0  0  0  0  0
    6.7177   -0.7480    0.0000 H   0  0  0  0  0  0  0  0  0  0  0  0
   10.1818   -1.3680    0.0000 H   0  0  0  0  0  0  0  0  0  0  0  0
    5.1027   -0.9754    0.0000 H   0  0  0  0  0  0  0  0  0  0  0  0
    4.7042   -1.6656    0.0000 H   0  0  0  0  0  0  0  0  0  0  0  0
    9.1079    0.2520    0.0000 H   0  0  0  0  0  0  0  0  0  0  0  0
    7.5837    0.1320    0.0000 H   0  0  0  0  0  0  0  0  0  0  0  0
    6.7177   -2.7480    0.0000 H   0  0  0  0  0  0  0  0  0  0  0  0
    3.9118   -2.7480    0.0000 H   0  0  0  0  0  0  0  0  0  0  0  0
    7.5837    1.7520    0.0000 H   0  0  0  0  0  0  0  0  0  0  0  0
    6.1808    2.5620    0.0000 H   0  0  0  0  0  0  0  0  0  0  0  0
    6.7177   -4.3680    0.0000 H   0  0  0  0  0  0  0  0  0  0  0  0
    3.9118   -4.3680    0.0000 H   0  0  0  0  0  0  0  0  0  0  0  0
    3.9118    1.6320    0.0000 H   0  0  0  0  0  0  0  0  0  0  0  0
   11.5890    1.3594    0.0000 H   0  0  0  0  0  0  0  0  0  0  0  0
   11.9875    2.0497    0.0000 H   0  0  0  0  0  0  0  0  0  0  0  0
   11.9969    2.9420    0.0000 H   0  0  0  0  0  0  0  0  0  0  0  0
   11.3769    3.5620    0.0000 H   0  0  0  0  0  0  0  0  0  0  0  0
   10.7569    2.9420    0.0000 H   0  0  0  0  0  0  0  0  0  0  0  0
    3.9389    4.8514    0.0000 H   0  0  0  0  0  0  0  0  0  0  0  0
    2.6597    5.8102    0.0000 H   0  0  0  0  0  0  0  0  0  0  0  0
    1.8411    6.1244    0.0000 H   0  0  0  0  0  0  0  0  0  0  0  0
    1.5269    5.3058    0.0000 H   0  0  0  0  0  0  0  0  0  0  0  0
  1 36  1  0  0  0  0
  2 19  2  0  0  0  0
  3 22  2  0  0  0  0
  4 26  2  0  0  0  0
  5 32  1  0  0  0  0
  5 38  1  0  0  0  0
  6 32  2  0  0  0  0
  7 37  2  0  0  0  0
  8 13  1  0  0  0  0
  8 42  1  0  0  0  0
  9 18  1  0  0  0  0
  9 19  1  0  0  0  0
  9 52  1  0  0  0  0
 17 10  1  6  0  0  0
 10 22  1  0  0  0  0
 10 53  1  0  0  0  0
 11 20  1  0  0  0  0
 11 26  1  0  0  0  0
 11 27  1  0  0  0  0
 12 28  1  0  0  0  0
 12 37  1  0  0  0  0
 12 66  1  0  0  0  0
 13 39  2  0  0  0  0
 14 15  1  1  0  0  0
 14 16  1  0  0  0  0
 14 19  1  0  0  0  0
 14 44  1  0  0  0  0
 15 17  1  0  0  0  0
 15 45  1  0  0  0  0
 15 46  1  0  0  0  0
 16 18  1  0  0  0  0
 16 47  1  0  0  0  0
 16 48  1  0  0  0  0
 17 21  1  0  0  0  0
 17 49  1  0  0  0  0
 18 50  1  0  0  0  0
 18 51  1  0  0  0  0
 20 22  1  6  0  0  0
 20 23  1  0  0  0  0
 20 54  1  0  0  0  0
 21 24  2  0  0  0  0
 21 55  1  0  0  0  0
 23 25  1  0  0  0  0
 23 56  1  0  0  0  0
 23 57  1  0  0  0  0
 24 32  1  0  0  0  0
 24 58  1  0  0  0  0
 25 29  2  0  0  0  0
 25 30  1  0  0  0  0
 26 28  1  0  0  0  0
 27 31  2  0  0  0  0
 27 59  1  0  0  0  0
 28 33  2  0  0  0  0
 29 34  1  0  0  0  0
 29 60  1  0  0  0  0
 30 35  2  0  0  0  0
 30 61  1  0  0  0  0
 31 33  1  0  0  0  0
 31 62  1  0  0  0  0
 33 63  1  0  0  0  0
 34 36  2  0  0  0  0
 34 64  1  0  0  0  0
 35 36  1  0  0  0  0
 35 65  1  0  0  0  0
 37 39  1  0  0  0  0
 38 40  1  0  0  0  0
 38 67  1  0  0  0  0
 38 68  1  0  0  0  0
 39 41  1  0  0  0  0
 40 69  1  0  0  0  0
 40 70  1  0  0  0  0
 40 71  1  0  0  0  0
 41 42  2  0  0  0  0
 41 72  1  0  0  0  0
 42 43  1  0  0  0  0
 43 73  1  0  0  0  0
 43 74  1  0  0  0  0
 43 75  1  0  0  0  0
M  END
> <PUBCHEM_COMPOUND_CID>
6477669

> <PUBCHEM_COMPOUND_CANONICALIZED>
1

> <PUBCHEM_CACTVS_COMPLEXITY>
1150

> <PUBCHEM_CACTVS_HBOND_ACCEPTOR>
9

> <PUBCHEM_CACTVS_HBOND_DONOR>
3

> <PUBCHEM_CACTVS_ROTATABLE_BOND>
13

> <PUBCHEM_CACTVS_SUBSKEYS>
AAADcfB7uQAAAAAAAAAAAAAAAAAAAWLAAAAwQAAAAAAAAAABwAAAHwAUAAAADSzhng4yjJPQBACpA6X2WgCCAAAmIgAomKG+bNoIZjqAtbOWMYhmlhiI6cc/iICOAAAAAAAAAAAAAAAAAAAAAAAAAAAAAA==

> <PUBCHEM_IUPAC_OPENEYE_NAME>
ethyl (E,4S)-4-[[(2S)-3-(4-fluorophenyl)-2-[3-[(5-methylisoxazole-3-carbonyl)amino]-2-oxo-1-pyridyl]propanoyl]amino]-5-[(3S)-2-oxopyrrolidin-3-yl]pent-2-enoate

> <PUBCHEM_IUPAC_CAS_NAME>
(E,4S)-4-[[(2S)-3-(4-fluorophenyl)-2-[3-[[(5-methyl-3-isoxazolyl)-oxomethyl]amino]-2-oxo-1-pyridinyl]-1-oxopropyl]amino]-5-[(3S)-2-oxo-3-pyrrolidinyl]-2-pentenoic acid ethyl ester

> <PUBCHEM_IUPAC_NAME_MARKUP>
ethyl (<I>E</I>,4<I>S</I>)-4-[[(2<I>S</I>)-3-(4-fluorophenyl)-2-[3-[(5-methyl-1,2-oxazole-3-carbonyl)amino]-2-oxopyridin-1-yl]propanoyl]amino]-5-[(3<I>S</I>)-2-oxopyrrolidin-3-yl]pent-2-enoate

> <PUBCHEM_IUPAC_NAME>
ethyl (E,4S)-4-[[(2S)-3-(4-fluorophenyl)-2-[3-[(5-methyl-1,2-oxazole-3-carbonyl)amino]-2-oxopyridin-1-yl]propanoyl]amino]-5-[(3S)-2-oxopyrrolidin-3-yl]pent-2-enoate

> <PUBCHEM_IUPAC_SYSTEMATIC_NAME>
ethyl (E,4S)-4-[[(2S)-3-(4-fluorophenyl)-2-[3-[(5-methyl-1,2-oxazol-3-yl)carbonylamino]-2-oxidanylidene-pyridin-1-yl]propanoyl]amino]-5-[(3S)-2-oxidanylidenepyrrolidin-3-yl]pent-2-enoate

> <PUBCHEM_IUPAC_TRADITIONAL_NAME>
(E,4S)-4-[[(2S)-3-(4-fluorophenyl)-2-[2-keto-3-[(5-methylisoxazole-3-carbonyl)amino]-1-pyridyl]propanoyl]amino]-5-[(3S)-2-ketopyrrolidin-3-yl]pent-2-enoic acid ethyl ester

> <PUBCHEM_IUPAC_INCHI>
InChI=1S/C30H32FN5O7/c1-3-42-26(37)11-10-22(17-20-12-13-32-27(20)38)33-29(40)25(16-19-6-8-21(31)9-7-19)36-14-4-5-23(30(36)41)34-28(39)24-15-18(2)43-35-24/h4-11,14-15,20,22,25H,3,12-13,16-17H2,1-2H3,(H,32,38)(H,33,40)(H,34,39)/b11-10+/t20-,22+,25-/m0/s1

> <PUBCHEM_IUPAC_INCHIKEY>
DPSADWBPDLMTOY-BCDMVZSVSA-N

> <PUBCHEM_XLOGP3_AA>
2.4

> <PUBCHEM_EXACT_MASS>
593.228577

> <PUBCHEM_MOLECULAR_FORMULA>
C30H32FN5O7

> <PUBCHEM_MOLECULAR_WEIGHT>
593.6

> <PUBCHEM_OPENEYE_CAN_SMILES>
CCOC(=O)C=CC(CC1CCNC1=O)NC(=O)C(CC2=CC=C(C=C2)F)N3C=CC=C(C3=O)NC(=O)C4=NOC(=C4)C

> <PUBCHEM_OPENEYE_ISO_SMILES>
CCOC(=O)/C=C/[C@H](C[C@@H]1CCNC1=O)NC(=O)[C@H](CC2=CC=C(C=C2)F)N3C=CC=C(C3=O)NC(=O)C4=NOC(=C4)C

> <PUBCHEM_CACTVS_TPSA>
160

> <PUBCHEM_MONOISOTOPIC_WEIGHT>
593.228577

> <PUBCHEM_TOTAL_CHARGE>
0

> <PUBCHEM_HEAVY_ATOM_COUNT>
43

> <PUBCHEM_ATOM_DEF_STEREO_COUNT>
3

> <PUBCHEM_ATOM_UDEF_STEREO_COUNT>
0

> <PUBCHEM_BOND_DEF_STEREO_COUNT>
1

> <PUBCHEM_BOND_UDEF_STEREO_COUNT>
0

> <PUBCHEM_ISOTOPIC_ATOM_COUNT>
0

> <PUBCHEM_COMPONENT_COUNT>
1

> <PUBCHEM_CACTVS_TAUTO_COUNT>
-1

> <PUBCHEM_COORDINATE_TYPE>
1
5
255

> <PUBCHEM_BONDANNOTATIONS>
17  10  6
11  26  8
11  27  8
13  39  8
14  15  5
20  22  6
25  29  8
25  30  8
26  28  8
27  31  8
28  33  8
29  34  8
30  35  8
31  33  8
34  36  8
35  36  8
39  41  8
41  42  8
8  13  8
8  42  8

$$$$
6477671
  -OEChem-02212016592D

 78 81  0     1  0  0  0  0  0999 V2000
    3.5827   -4.5580    0.0000 F   0  0  0  0  0  0  0  0  0  0  0  0
    5.3147   -5.5580    0.0000 F   0  0  0  0  0  0  0  0  0  0  0  0
    9.0062   -4.7216    0.0000 O   0  0  0  0  0  0  0  0  0  0  0  0
    7.0468   -2.5580    0.0000 O   0  0  0  0  0  0  0  0  0  0  0  0
   10.5109    1.4420    0.0000 O   0  0  0  0  0  0  0  0  0  0  0  0
    4.4487   -0.0580    0.0000 O   0  0  0  0  0  0  0  0  0  0  0  0
   11.3769   -0.0580    0.0000 O   0  0  0  0  0  0  0  0  0  0  0  0
    5.3147    3.4420    0.0000 O   0  0  0  0  0  0  0  0  0  0  0  0
    2.0000    3.7784    0.0000 O   0  0  0  0  0  0  0  0  0  0  0  0
   10.7275   -4.2604    0.0000 N   0  0  0  0  0  0  0  0  0  0  0  0
    7.9128   -1.0580    0.0000 N   0  0  0  0  0  0  0  0  0  0  0  0
    6.1808   -0.0580    0.0000 N   0  0  0  0  0  0  0  0  0  0  0  0
    4.4487    1.9420    0.0000 N   0  0  0  0  0  0  0  0  0  0  0  0
    2.6691    3.0353    0.0000 N   0  0  0  0  0  0  0  0  0  0  0  0
    9.6448   -3.0580    0.0000 C   0  0  2  0  0  0  0  0  0  0  0  0
    8.7788   -2.5580    0.0000 C   0  0  0  0  0  0  0  0  0  0  0  0
   10.5584   -2.6512    0.0000 C   0  0  0  0  0  0  0  0  0  0  0  0
    8.7788   -1.5580    0.0000 C   0  0  1  0  0  0  0  0  0  0  0  0
   11.2275   -3.3944    0.0000 C   0  0  0  0  0  0  0  0  0  0  0  0
    9.7494   -4.0525    0.0000 C   0  0  0  0  0  0  0  0  0  0  0  0
    6.1808   -1.0580    0.0000 C   0  0  2  0  0  0  0  0  0  0  0  0
    9.6448   -1.0580    0.0000 C   0  0  0  0  0  0  0  0  0  0  0  0
    7.0468   -1.5580    0.0000 C   0  0  0  0  0  0  0  0  0  0  0  0
    5.3147   -1.5580    0.0000 C   0  0  0  0  0  0  0  0  0  0  0  0
    9.6448   -0.0580    0.0000 C   0  0  0  0  0  0  0  0  0  0  0  0
    5.3147   -2.5580    0.0000 C   0  0  0  0  0  0  0  0  0  0  0  0
    5.3147    0.4420    0.0000 C   0  0  0  0  0  0  0  0  0  0  0  0
    7.0468    0.4420    0.0000 C   0  0  0  0  0  0  0  0  0  0  0  0
    5.3147    1.4420    0.0000 C   0  0  0  0  0  0  0  0  0  0  0  0
    4.4487   -3.0580    0.0000 C   0  0  0  0  0  0  0  0  0  0  0  0
    6.1808   -3.0580    0.0000 C   0  0  0  0  0  0  0  0  0  0  0  0
   10.5109    0.4420    0.0000 C   0  0  0  0  0  0  0  0  0  0  0  0
    7.0468    1.4420    0.0000 C   0  0  0  0  0  0  0  0  0  0  0  0
    6.1808    1.9420    0.0000 C   0  0  0  0  0  0  0  0  0  0  0  0
    4.4487   -4.0580    0.0000 C   0  0  0  0  0  0  0  0  0  0  0  0
    6.1808   -4.0580    0.0000 C   0  0  0  0  0  0  0  0  0  0  0  0
    5.3147   -4.5580    0.0000 C   0  0  0  0  0  0  0  0  0  0  0  0
   11.3769    1.9420    0.0000 C   0  0  0  0  0  0  0  0  0  0  0  0
    4.4487    2.9420    0.0000 C   0  0  0  0  0  0  0  0  0  0  0  0
   11.3769    2.9420    0.0000 C   0  0  0  0  0  0  0  0  0  0  0  0
   12.2429    1.4420    0.0000 C   0  0  0  0  0  0  0  0  0  0  0  0
    3.5827    3.4420    0.0000 C   0  0  0  0  0  0  0  0  0  0  0  0
    3.4782    4.4365    0.0000 C   0  0  0  0  0  0  0  0  0  0  0  0
    2.5000    4.6444    0.0000 C   0  0  0  0  0  0  0  0  0  0  0  0
    2.0933    5.5580    0.0000 C   0  0  0  0  0  0  0  0  0  0  0  0
    9.1249   -3.3957    0.0000 H   0  0  0  0  0  0  0  0  0  0  0  0
    8.1682   -2.4503    0.0000 H   0  0  0  0  0  0  0  0  0  0  0  0
    8.5668   -3.1406    0.0000 H   0  0  0  0  0  0  0  0  0  0  0  0
   11.0600   -2.2868    0.0000 H   0  0  0  0  0  0  0  0  0  0  0  0
   10.2484   -2.1143    0.0000 H   0  0  0  0  0  0  0  0  0  0  0  0
    8.2419   -1.8680    0.0000 H   0  0  0  0  0  0  0  0  0  0  0  0
   11.7291   -3.7588    0.0000 H   0  0  0  0  0  0  0  0  0  0  0  0
   11.6424   -2.9336    0.0000 H   0  0  0  0  0  0  0  0  0  0  0  0
   10.9797   -4.8268    0.0000 H   0  0  0  0  0  0  0  0  0  0  0  0
    7.9128   -0.4380    0.0000 H   0  0  0  0  0  0  0  0  0  0  0  0
    6.7177   -0.7480    0.0000 H   0  0  0  0  0  0  0  0  0  0  0  0
   10.1818   -1.3680    0.0000 H   0  0  0  0  0  0  0  0  0  0  0  0
    5.1027   -0.9754    0.0000 H   0  0  0  0  0  0  0  0  0  0  0  0
    4.7042   -1.6656    0.0000 H   0  0  0  0  0  0  0  0  0  0  0  0
    9.1079    0.2520    0.0000 H   0  0  0  0  0  0  0  0  0  0  0  0
    7.5837    0.1320    0.0000 H   0  0  0  0  0  0  0  0  0  0  0  0
    3.9118   -2.7480    0.0000 H   0  0  0  0  0  0  0  0  0  0  0  0
    6.7177   -2.7480    0.0000 H   0  0  0  0  0  0  0  0  0  0  0  0
    7.5837    1.7520    0.0000 H   0  0  0  0  0  0  0  0  0  0  0  0
    6.1808    2.5620    0.0000 H   0  0  0  0  0  0  0  0  0  0  0  0
    6.7177   -4.3680    0.0000 H   0  0  0  0  0  0  0  0  0  0  0  0
    3.9118    1.6320    0.0000 H   0  0  0  0  0  0  0  0  0  0  0  0
   10.8400    2.2520    0.0000 H   0  0  0  0  0  0  0  0  0  0  0  0
   11.9969    2.9420    0.0000 H   0  0  0  0  0  0  0  0  0  0  0  0
   11.3769    3.5620    0.0000 H   0  0  0  0  0  0  0  0  0  0  0  0
   10.7569    2.9420    0.0000 H   0  0  0  0  0  0  0  0  0  0  0  0
   11.9329    0.9051    0.0000 H   0  0  0  0  0  0  0  0  0  0  0  0
   12.7799    1.1320    0.0000 H   0  0  0  0  0  0  0  0  0  0  0  0
   12.5529    1.9790    0.0000 H   0  0  0  0  0  0  0  0  0  0  0  0
    3.9389    4.8514    0.0000 H   0  0  0  0  0  0  0  0  0  0  0  0
    2.6597    5.8102    0.0000 H   0  0  0  0  0  0  0  0  0  0  0  0
    1.8411    6.1244    0.0000 H   0  0  0  0  0  0  0  0  0  0  0  0
    1.5269    5.3058    0.0000 H   0  0  0  0  0  0  0  0  0  0  0  0
  1 35  1  0  0  0  0
  2 37  1  0  0  0  0
  3 20  2  0  0  0  0
  4 23  2  0  0  0  0
  5 32  1  0  0  0  0
  5 38  1  0  0  0  0
  6 27  2  0  0  0  0
  7 32  2  0  0  0  0
  8 39  2  0  0  0  0
  9 14  1  0  0  0  0
  9 44  1  0  0  0  0
 10 19  1  0  0  0  0
 10 20  1  0  0  0  0
 10 54  1  0  0  0  0
 18 11  1  6  0  0  0
 11 23  1  0  0  0  0
 11 55  1  0  0  0  0
 12 21  1  0  0  0  0
 12 27  1  0  0  0  0
 12 28  1  0  0  0  0
 13 29  1  0  0  0  0
 13 39  1  0  0  0  0
 13 67  1  0  0  0  0
 14 42  2  0  0  0  0
 15 16  1  6  0  0  0
 15 17  1  0  0  0  0
 15 20  1  0  0  0  0
 15 46  1  0  0  0  0
 16 18  1  0  0  0  0
 16 47  1  0  0  0  0
 16 48  1  0  0  0  0
 17 19  1  0  0  0  0
 17 49  1  0  0  0  0
 17 50  1  0  0  0  0
 18 22  1  0  0  0  0
 18 51  1  0  0  0  0
 19 52  1  0  0  0  0
 19 53  1  0  0  0  0
 21 23  1  6  0  0  0
 21 24  1  0  0  0  0
 21 56  1  0  0  0  0
 22 25  2  0  0  0  0
 22 57  1  0  0  0  0
 24 26  1  0  0  0  0
 24 58  1  0  0  0  0
 24 59  1  0  0  0  0
 25 32  1  0  0  0  0
 25 60  1  0  0  0  0
 26 30  2  0  0  0  0
 26 31  1  0  0  0  0
 27 29  1  0  0  0  0
 28 33  2  0  0  0  0
 28 61  1  0  0  0  0
 29 34  2  0  0  0  0
 30 35  1  0  0  0  0
 30 62  1  0  0  0  0
 31 36  2  0  0  0  0
 31 63  1  0  0  0  0
 33 34  1  0  0  0  0
 33 64  1  0  0  0  0
 34 65  1  0  0  0  0
 35 37  2  0  0  0  0
 36 37  1  0  0  0  0
 36 66  1  0  0  0  0
 38 40  1  0  0  0  0
 38 41  1  0  0  0  0
 38 68  1  0  0  0  0
 39 42  1  0  0  0  0
 40 69  1  0  0  0  0
 40 70  1  0  0  0  0
 40 71  1  0  0  0  0
 41 72  1  0  0  0  0
 41 73  1  0  0  0  0
 41 74  1  0  0  0  0
 42 43  1  0  0  0  0
 43 44  2  0  0  0  0
 43 75  1  0  0  0  0
 44 45  1  0  0  0  0
 45 76  1  0  0  0  0
 45 77  1  0  0  0  0
 45 78  1  0  0  0  0
M  END
> <PUBCHEM_COMPOUND_CID>
6477671

> <PUBCHEM_COMPOUND_CANONICALIZED>
1

> <PUBCHEM_CACTVS_COMPLEXITY>
1220

> <PUBCHEM_CACTVS_HBOND_ACCEPTOR>
10

> <PUBCHEM_CACTVS_HBOND_DONOR>
3

> <PUBCHEM_CACTVS_ROTATABLE_BOND>
13

> <PUBCHEM_CACTVS_SUBSKEYS>
AAADcfB7uYAAAAAAAAAAAAAAAAAAAWLAAAAwQAAAAAAAAAABwAAAHwAUAAAADTzhng4yjJPQBACpA6X2WgCCAAAmIgAomKG+bNoIZjqAtbOWMYhmlhiI6cc/iICOAAAAAAAAAAAAAAAAAAAAAAAAAAAAAA==

> <PUBCHEM_IUPAC_OPENEYE_NAME>
isopropyl (E,4S)-4-[[(2S)-3-(3,4-difluorophenyl)-2-[3-[(5-methylisoxazole-3-carbonyl)amino]-2-oxo-1-pyridyl]propanoyl]amino]-5-[(3S)-2-oxopyrrolidin-3-yl]pent-2-enoate

> <PUBCHEM_IUPAC_CAS_NAME>
(E,4S)-4-[[(2S)-3-(3,4-difluorophenyl)-2-[3-[[(5-methyl-3-isoxazolyl)-oxomethyl]amino]-2-oxo-1-pyridinyl]-1-oxopropyl]amino]-5-[(3S)-2-oxo-3-pyrrolidinyl]-2-pentenoic acid propan-2-yl ester

> <PUBCHEM_IUPAC_NAME_MARKUP>
propan-2-yl (<I>E</I>,4<I>S</I>)-4-[[(2<I>S</I>)-3-(3,4-difluorophenyl)-2-[3-[(5-methyl-1,2-oxazole-3-carbonyl)amino]-2-oxopyridin-1-yl]propanoyl]amino]-5-[(3<I>S</I>)-2-oxopyrrolidin-3-yl]pent-2-enoate

> <PUBCHEM_IUPAC_NAME>
propan-2-yl (E,4S)-4-[[(2S)-3-(3,4-difluorophenyl)-2-[3-[(5-methyl-1,2-oxazole-3-carbonyl)amino]-2-oxopyridin-1-yl]propanoyl]amino]-5-[(3S)-2-oxopyrrolidin-3-yl]pent-2-enoate

> <PUBCHEM_IUPAC_SYSTEMATIC_NAME>
propan-2-yl (E,4S)-4-[[(2S)-3-[3,4-bis(fluoranyl)phenyl]-2-[3-[(5-methyl-1,2-oxazol-3-yl)carbonylamino]-2-oxidanylidene-pyridin-1-yl]propanoyl]amino]-5-[(3S)-2-oxidanylidenepyrrolidin-3-yl]pent-2-enoate

> <PUBCHEM_IUPAC_TRADITIONAL_NAME>
(E,4S)-4-[[(2S)-3-(3,4-difluorophenyl)-2-[2-keto-3-[(5-methylisoxazole-3-carbonyl)amino]-1-pyridyl]propanoyl]amino]-5-[(3S)-2-ketopyrrolidin-3-yl]pent-2-enoic acid isopropyl ester

> <PUBCHEM_IUPAC_INCHI>
InChI=1S/C31H33F2N5O7/c1-17(2)44-27(39)9-7-21(16-20-10-11-34-28(20)40)35-30(42)26(15-19-6-8-22(32)23(33)14-19)38-12-4-5-24(31(38)43)36-29(41)25-13-18(3)45-37-25/h4-9,12-14,17,20-21,26H,10-11,15-16H2,1-3H3,(H,34,40)(H,35,42)(H,36,41)/b9-7+/t20-,21+,26-/m0/s1

> <PUBCHEM_IUPAC_INCHIKEY>
IDEQIHVMYCERBI-QNSPMPMTSA-N

> <PUBCHEM_XLOGP3_AA>
2.9

> <PUBCHEM_EXACT_MASS>
625.234805

> <PUBCHEM_MOLECULAR_FORMULA>
C31H33F2N5O7

> <PUBCHEM_MOLECULAR_WEIGHT>
625.6

> <PUBCHEM_OPENEYE_CAN_SMILES>
CC1=CC(=NO1)C(=O)NC2=CC=CN(C2=O)C(CC3=CC(=C(C=C3)F)F)C(=O)NC(CC4CCNC4=O)C=CC(=O)OC(C)C

> <PUBCHEM_OPENEYE_ISO_SMILES>
CC1=CC(=NO1)C(=O)NC2=CC=CN(C2=O)[C@@H](CC3=CC(=C(C=C3)F)F)C(=O)N[C@@H](C[C@@H]4CCNC4=O)/C=C/C(=O)OC(C)C

> <PUBCHEM_CACTVS_TPSA>
160

> <PUBCHEM_MONOISOTOPIC_WEIGHT>
625.234805

> <PUBCHEM_TOTAL_CHARGE>
0

> <PUBCHEM_HEAVY_ATOM_COUNT>
45

> <PUBCHEM_ATOM_DEF_STEREO_COUNT>
3

> <PUBCHEM_ATOM_UDEF_STEREO_COUNT>
0

> <PUBCHEM_BOND_DEF_STEREO_COUNT>
1

> <PUBCHEM_BOND_UDEF_STEREO_COUNT>
0

> <PUBCHEM_ISOTOPIC_ATOM_COUNT>
0

> <PUBCHEM_COMPONENT_COUNT>
1

> <PUBCHEM_CACTVS_TAUTO_COUNT>
-1

> <PUBCHEM_COORDINATE_TYPE>
1
5
255

> <PUBCHEM_BONDANNOTATIONS>
18  11  6
12  27  8
12  28  8
14  42  8
15  16  6
21  23  6
26  30  8
26  31  8
27  29  8
28  33  8
29  34  8
30  35  8
31  36  8
33  34  8
35  37  8
36  37  8
42  43  8
43  44  8
9  14  8
9  44  8

$$$$
6478232
  -OEChem-02212016592D

 84 86  0     1  0  0  0  0  0999 V2000
    6.3092   -5.1012    0.0000 F   0  0  0  0  0  0  0  0  0  0  0  0
   10.0008   -4.2649    0.0000 O   0  0  0  0  0  0  0  0  0  0  0  0
    5.4432    0.3988    0.0000 O   0  0  0  0  0  0  0  0  0  0  0  0
    8.0413   -2.1012    0.0000 O   0  0  0  0  0  0  0  0  0  0  0  0
    6.3092    3.8988    0.0000 O   0  0  0  0  0  0  0  0  0  0  0  0
   12.3714    0.3988    0.0000 O   0  0  0  0  0  0  0  0  0  0  0  0
    3.4945    5.1012    0.0000 O   0  0  0  0  0  0  0  0  0  0  0  0
   11.5054    1.8988    0.0000 O   0  0  0  0  0  0  0  0  0  0  0  0
   11.7221   -3.8036    0.0000 N   0  0  0  0  0  0  0  0  0  0  0  0
    8.9073   -0.6012    0.0000 N   0  0  0  0  0  0  0  0  0  0  0  0
    7.1753    0.3988    0.0000 N   0  0  0  0  0  0  0  0  0  0  0  0
    5.4432    2.3988    0.0000 N   0  0  0  0  0  0  0  0  0  0  0  0
    4.4727    4.8933    0.0000 N   0  0  0  0  0  0  0  0  0  0  0  0
   10.6394   -2.6012    0.0000 C   0  0  2  0  0  0  0  0  0  0  0  0
    9.7734   -2.1012    0.0000 C   0  0  0  0  0  0  0  0  0  0  0  0
   11.5529   -2.1945    0.0000 C   0  0  0  0  0  0  0  0  0  0  0  0
    7.1753    2.3988    0.0000 C   0  0  0  0  0  0  0  0  0  0  0  0
    9.7734   -1.1012    0.0000 C   0  0  1  0  0  0  0  0  0  0  0  0
    6.3092    1.8988    0.0000 C   0  0  1  0  0  0  0  0  0  0  0  0
   12.2221   -2.9376    0.0000 C   0  0  0  0  0  0  0  0  0  0  0  0
   10.7439   -3.5957    0.0000 C   0  0  0  0  0  0  0  0  0  0  0  0
    7.1753   -0.6012    0.0000 C   0  0  2  0  0  0  0  0  0  0  0  0
    8.0413    2.8988    0.0000 C   0  0  0  0  0  0  0  0  0  0  0  0
    6.6753    3.2648    0.0000 C   0  0  0  0  0  0  0  0  0  0  0  0
    7.6753    1.5328    0.0000 C   0  0  0  0  0  0  0  0  0  0  0  0
    6.3092    0.8988    0.0000 C   0  0  0  0  0  0  0  0  0  0  0  0
    8.0413   -1.1012    0.0000 C   0  0  0  0  0  0  0  0  0  0  0  0
   10.6394   -0.6012    0.0000 C   0  0  0  0  0  0  0  0  0  0  0  0
    6.3092   -1.1012    0.0000 C   0  0  0  0  0  0  0  0  0  0  0  0
    6.3092   -2.1012    0.0000 C   0  0  0  0  0  0  0  0  0  0  0  0
    5.4432    3.3988    0.0000 C   0  0  0  0  0  0  0  0  0  0  0  0
   10.6394    0.3988    0.0000 C   0  0  0  0  0  0  0  0  0  0  0  0
    7.1753   -2.6012    0.0000 C   0  0  0  0  0  0  0  0  0  0  0  0
    5.4432   -2.6012    0.0000 C   0  0  0  0  0  0  0  0  0  0  0  0
    4.5772    3.8988    0.0000 C   0  0  0  0  0  0  0  0  0  0  0  0
   11.5054    0.8988    0.0000 C   0  0  0  0  0  0  0  0  0  0  0  0
    7.1753   -3.6012    0.0000 C   0  0  0  0  0  0  0  0  0  0  0  0
    5.4432   -3.6012    0.0000 C   0  0  0  0  0  0  0  0  0  0  0  0
    3.6636    3.4920    0.0000 C   0  0  0  0  0  0  0  0  0  0  0  0
    6.3092   -4.1012    0.0000 C   0  0  0  0  0  0  0  0  0  0  0  0
    2.9945    4.2352    0.0000 C   0  0  0  0  0  0  0  0  0  0  0  0
   13.2375    0.8988    0.0000 C   0  0  0  0  0  0  0  0  0  0  0  0
    2.0000    4.1307    0.0000 C   0  0  0  0  0  0  0  0  0  0  0  0
   14.1035    0.3988    0.0000 C   0  0  0  0  0  0  0  0  0  0  0  0
   10.1194   -2.9389    0.0000 H   0  0  0  0  0  0  0  0  0  0  0  0
    9.1628   -1.9936    0.0000 H   0  0  0  0  0  0  0  0  0  0  0  0
    9.5613   -2.6838    0.0000 H   0  0  0  0  0  0  0  0  0  0  0  0
   12.0545   -1.8300    0.0000 H   0  0  0  0  0  0  0  0  0  0  0  0
   11.2429   -1.6575    0.0000 H   0  0  0  0  0  0  0  0  0  0  0  0
    9.7734   -0.4812    0.0000 H   0  0  0  0  0  0  0  0  0  0  0  0
    6.3092    2.5188    0.0000 H   0  0  0  0  0  0  0  0  0  0  0  0
   12.7236   -3.3020    0.0000 H   0  0  0  0  0  0  0  0  0  0  0  0
   12.6369   -2.4769    0.0000 H   0  0  0  0  0  0  0  0  0  0  0  0
   11.9742   -4.3700    0.0000 H   0  0  0  0  0  0  0  0  0  0  0  0
    7.7122   -0.2912    0.0000 H   0  0  0  0  0  0  0  0  0  0  0  0
    8.9073    0.0188    0.0000 H   0  0  0  0  0  0  0  0  0  0  0  0
    8.3513    2.3618    0.0000 H   0  0  0  0  0  0  0  0  0  0  0  0
    8.5782    3.2088    0.0000 H   0  0  0  0  0  0  0  0  0  0  0  0
    7.7313    3.4357    0.0000 H   0  0  0  0  0  0  0  0  0  0  0  0
    7.2122    3.5748    0.0000 H   0  0  0  0  0  0  0  0  0  0  0  0
    6.3653    3.8017    0.0000 H   0  0  0  0  0  0  0  0  0  0  0  0
    6.1383    2.9548    0.0000 H   0  0  0  0  0  0  0  0  0  0  0  0
    7.1383    1.2228    0.0000 H   0  0  0  0  0  0  0  0  0  0  0  0
    7.9853    0.9958    0.0000 H   0  0  0  0  0  0  0  0  0  0  0  0
    8.2122    1.8428    0.0000 H   0  0  0  0  0  0  0  0  0  0  0  0
    7.7122    0.7088    0.0000 H   0  0  0  0  0  0  0  0  0  0  0  0
   11.1763   -0.9112    0.0000 H   0  0  0  0  0  0  0  0  0  0  0  0
    4.9063    2.0888    0.0000 H   0  0  0  0  0  0  0  0  0  0  0  0
    6.0972   -0.5186    0.0000 H   0  0  0  0  0  0  0  0  0  0  0  0
    5.6987   -1.2089    0.0000 H   0  0  0  0  0  0  0  0  0  0  0  0
   10.1024    0.7088    0.0000 H   0  0  0  0  0  0  0  0  0  0  0  0
    7.7122   -2.2912    0.0000 H   0  0  0  0  0  0  0  0  0  0  0  0
    4.9063   -2.2912    0.0000 H   0  0  0  0  0  0  0  0  0  0  0  0
    7.7122   -3.9112    0.0000 H   0  0  0  0  0  0  0  0  0  0  0  0
    4.9063   -3.9112    0.0000 H   0  0  0  0  0  0  0  0  0  0  0  0
    3.5348    2.8856    0.0000 H   0  0  0  0  0  0  0  0  0  0  0  0
   13.6360    1.3737    0.0000 H   0  0  0  0  0  0  0  0  0  0  0  0
   12.8389    1.3737    0.0000 H   0  0  0  0  0  0  0  0  0  0  0  0
    1.9352    4.7473    0.0000 H   0  0  0  0  0  0  0  0  0  0  0  0
    1.3834    4.0659    0.0000 H   0  0  0  0  0  0  0  0  0  0  0  0
    2.0648    3.5141    0.0000 H   0  0  0  0  0  0  0  0  0  0  0  0
   13.7935   -0.1382    0.0000 H   0  0  0  0  0  0  0  0  0  0  0  0
   14.6404    0.0888    0.0000 H   0  0  0  0  0  0  0  0  0  0  0  0
   14.4135    0.9357    0.0000 H   0  0  0  0  0  0  0  0  0  0  0  0
  1 40  1  0  0  0  0
  2 21  2  0  0  0  0
  3 26  2  0  0  0  0
  4 27  2  0  0  0  0
  5 31  2  0  0  0  0
  6 36  1  0  0  0  0
  6 42  1  0  0  0  0
  7 13  1  0  0  0  0
  7 41  1  0  0  0  0
  8 36  2  0  0  0  0
  9 20  1  0  0  0  0
  9 21  1  0  0  0  0
  9 54  1  0  0  0  0
 18 10  1  6  0  0  0
 10 27  1  0  0  0  0
 10 56  1  0  0  0  0
 22 11  1  6  0  0  0
 11 26  1  0  0  0  0
 11 66  1  0  0  0  0
 19 12  1  1  0  0  0
 12 31  1  0  0  0  0
 12 68  1  0  0  0  0
 13 35  2  0  0  0  0
 14 15  1  6  0  0  0
 14 16  1  0  0  0  0
 14 21  1  0  0  0  0
 14 45  1  0  0  0  0
 15 18  1  0  0  0  0
 15 46  1  0  0  0  0
 15 47  1  0  0  0  0
 16 20  1  0  0  0  0
 16 48  1  0  0  0  0
 16 49  1  0  0  0  0
 17 19  1  0  0  0  0
 17 23  1  0  0  0  0
 17 24  1  0  0  0  0
 17 25  1  0  0  0  0
 18 28  1  0  0  0  0
 18 50  1  0  0  0  0
 19 26  1  0  0  0  0
 19 51  1  0  0  0  0
 20 52  1  0  0  0  0
 20 53  1  0  0  0  0
 22 27  1  0  0  0  0
 22 29  1  0  0  0  0
 22 55  1  0  0  0  0
 23 57  1  0  0  0  0
 23 58  1  0  0  0  0
 23 59  1  0  0  0  0
 24 60  1  0  0  0  0
 24 61  1  0  0  0  0
 24 62  1  0  0  0  0
 25 63  1  0  0  0  0
 25 64  1  0  0  0  0
 25 65  1  0  0  0  0
 28 32  2  0  0  0  0
 28 67  1  0  0  0  0
 29 30  1  0  0  0  0
 29 69  1  0  0  0  0
 29 70  1  0  0  0  0
 30 33  2  0  0  0  0
 30 34  1  0  0  0  0
 31 35  1  0  0  0  0
 32 36  1  0  0  0  0
 32 71  1  0  0  0  0
 33 37  1  0  0  0  0
 33 72  1  0  0  0  0
 34 38  2  0  0  0  0
 34 73  1  0  0  0  0
 35 39  1  0  0  0  0
 37 40  2  0  0  0  0
 37 74  1  0  0  0  0
 38 40  1  0  0  0  0
 38 75  1  0  0  0  0
 39 41  2  0  0  0  0
 39 76  1  0  0  0  0
 41 43  1  0  0  0  0
 42 44  1  0  0  0  0
 42 77  1  0  0  0  0
 42 78  1  0  0  0  0
 43 79  1  0  0  0  0
 43 80  1  0  0  0  0
 43 81  1  0  0  0  0
 44 82  1  0  0  0  0
 44 83  1  0  0  0  0
 44 84  1  0  0  0  0
M  END
> <PUBCHEM_COMPOUND_CID>
6478232

> <PUBCHEM_COMPOUND_CANONICALIZED>
1

> <PUBCHEM_CACTVS_COMPLEXITY>
1060

> <PUBCHEM_CACTVS_HBOND_ACCEPTOR>
9

> <PUBCHEM_CACTVS_HBOND_DONOR>
4

> <PUBCHEM_CACTVS_ROTATABLE_BOND>
15

> <PUBCHEM_CACTVS_SUBSKEYS>
AAADcfB7uQAAAAAAAAAAAAAAAAAAAWLAAAAwAAAAAAAAAAABwAAAHwAUAAAADyzhng4yjJLQBACpA6XyWgCCAAAmIgAomKG+bNoIZjqAtbOWMYhmlhiI6cc/iICPAAAAAAAAAAAAAAAAAAAAAAAAAAAAAA==

> <PUBCHEM_IUPAC_OPENEYE_NAME>
ethyl (E,4S)-4-[[(2S)-2-[[(2S)-3,3-dimethyl-2-[(5-methylisoxazole-3-carbonyl)amino]butanoyl]amino]-3-(4-fluorophenyl)propanoyl]amino]-5-[(3S)-2-oxopyrrolidin-3-yl]pent-2-enoate

> <PUBCHEM_IUPAC_CAS_NAME>
(E,4S)-4-[[(2S)-2-[[(2S)-3,3-dimethyl-2-[[(5-methyl-3-isoxazolyl)-oxomethyl]amino]-1-oxobutyl]amino]-3-(4-fluorophenyl)-1-oxopropyl]amino]-5-[(3S)-2-oxo-3-pyrrolidinyl]-2-pentenoic acid ethyl ester

> <PUBCHEM_IUPAC_NAME_MARKUP>
ethyl (<I>E</I>,4<I>S</I>)-4-[[(2<I>S</I>)-2-[[(2<I>S</I>)-3,3-dimethyl-2-[(5-methyl-1,2-oxazole-3-carbonyl)amino]butanoyl]amino]-3-(4-fluorophenyl)propanoyl]amino]-5-[(3<I>S</I>)-2-oxopyrrolidin-3-yl]pent-2-enoate

> <PUBCHEM_IUPAC_NAME>
ethyl (E,4S)-4-[[(2S)-2-[[(2S)-3,3-dimethyl-2-[(5-methyl-1,2-oxazole-3-carbonyl)amino]butanoyl]amino]-3-(4-fluorophenyl)propanoyl]amino]-5-[(3S)-2-oxopyrrolidin-3-yl]pent-2-enoate

> <PUBCHEM_IUPAC_SYSTEMATIC_NAME>
ethyl (E,4S)-4-[[(2S)-2-[[(2S)-3,3-dimethyl-2-[(5-methyl-1,2-oxazol-3-yl)carbonylamino]butanoyl]amino]-3-(4-fluorophenyl)propanoyl]amino]-5-[(3S)-2-oxidanylidenepyrrolidin-3-yl]pent-2-enoate

> <PUBCHEM_IUPAC_TRADITIONAL_NAME>
(E,4S)-4-[[(2S)-2-[[(2S)-3,3-dimethyl-2-[(5-methylisoxazole-3-carbonyl)amino]butanoyl]amino]-3-(4-fluorophenyl)propanoyl]amino]-5-[(3S)-2-ketopyrrolidin-3-yl]pent-2-enoic acid ethyl ester

> <PUBCHEM_IUPAC_INCHI>
InChI=1S/C31H40FN5O7/c1-6-43-25(38)12-11-22(17-20-13-14-33-27(20)39)34-28(40)23(16-19-7-9-21(32)10-8-19)35-30(42)26(31(3,4)5)36-29(41)24-15-18(2)44-37-24/h7-12,15,20,22-23,26H,6,13-14,16-17H2,1-5H3,(H,33,39)(H,34,40)(H,35,42)(H,36,41)/b12-11+/t20-,22+,23-,26+/m0/s1

> <PUBCHEM_IUPAC_INCHIKEY>
JBRKSGSKGATCEA-CVVFYGBQSA-N

> <PUBCHEM_XLOGP3_AA>
3.2

> <PUBCHEM_EXACT_MASS>
613.291177

> <PUBCHEM_MOLECULAR_FORMULA>
C31H40FN5O7

> <PUBCHEM_MOLECULAR_WEIGHT>
613.7

> <PUBCHEM_OPENEYE_CAN_SMILES>
CCOC(=O)C=CC(CC1CCNC1=O)NC(=O)C(CC2=CC=C(C=C2)F)NC(=O)C(C(C)(C)C)NC(=O)C3=NOC(=C3)C

> <PUBCHEM_OPENEYE_ISO_SMILES>
CCOC(=O)/C=C/[C@H](C[C@@H]1CCNC1=O)NC(=O)[C@H](CC2=CC=C(C=C2)F)NC(=O)[C@H](C(C)(C)C)NC(=O)C3=NOC(=C3)C

> <PUBCHEM_CACTVS_TPSA>
169

> <PUBCHEM_MONOISOTOPIC_WEIGHT>
613.291177

> <PUBCHEM_TOTAL_CHARGE>
0

> <PUBCHEM_HEAVY_ATOM_COUNT>
44

> <PUBCHEM_ATOM_DEF_STEREO_COUNT>
4

> <PUBCHEM_ATOM_UDEF_STEREO_COUNT>
0

> <PUBCHEM_BOND_DEF_STEREO_COUNT>
1

> <PUBCHEM_BOND_UDEF_STEREO_COUNT>
0

> <PUBCHEM_ISOTOPIC_ATOM_COUNT>
0

> <PUBCHEM_COMPONENT_COUNT>
1

> <PUBCHEM_CACTVS_TAUTO_COUNT>
-1

> <PUBCHEM_COORDINATE_TYPE>
1
5
255

> <PUBCHEM_BONDANNOTATIONS>
18  10  6
22  11  6
19  12  5
13  35  8
14  15  6
30  33  8
30  34  8
33  37  8
34  38  8
35  39  8
37  40  8
38  40  8
39  41  8
7  13  8
7  41  8

$$$$
6478681
  -OEChem-02212016592D

 75 78  0     1  0  0  0  0  0999 V2000
   10.7663    0.0769    0.0000 O   0  0  0  0  0  0  0  0  0  0  0  0
    7.9128    0.6920    0.0000 O   0  0  0  0  0  0  0  0  0  0  0  0
    4.4487    1.6920    0.0000 O   0  0  0  0  0  0  0  0  0  0  0  0
    6.1808   -4.3080    0.0000 O   0  0  0  0  0  0  0  0  0  0  0  0
    7.9128   -4.3080    0.0000 O   0  0  0  0  0  0  0  0  0  0  0  0
    5.3147    5.1920    0.0000 O   0  0  0  0  0  0  0  0  0  0  0  0
    2.0000    5.5284    0.0000 O   0  0  0  0  0  0  0  0  0  0  0  0
   11.2275   -1.6444    0.0000 N   0  0  0  0  0  0  0  0  0  0  0  0
    7.0468   -0.8080    0.0000 N   0  0  0  0  0  0  0  0  0  0  0  0
    6.1808    1.6920    0.0000 N   0  0  0  0  0  0  0  0  0  0  0  0
    4.4487    3.6920    0.0000 N   0  0  0  0  0  0  0  0  0  0  0  0
    2.6691    4.7853    0.0000 N   0  0  0  0  0  0  0  0  0  0  0  0
    9.6448   -1.3080    0.0000 C   0  0  2  0  0  0  0  0  0  0  0  0
    8.7788   -0.8080    0.0000 C   0  0  0  0  0  0  0  0  0  0  0  0
    9.7494   -2.3025    0.0000 C   0  0  0  0  0  0  0  0  0  0  0  0
    7.9128   -1.3080    0.0000 C   0  0  1  0  0  0  0  0  0  0  0  0
   10.7275   -2.5104    0.0000 C   0  0  0  0  0  0  0  0  0  0  0  0
   10.5584   -0.9013    0.0000 C   0  0  0  0  0  0  0  0  0  0  0  0
    7.9128   -2.3080    0.0000 C   0  0  0  0  0  0  0  0  0  0  0  0
    6.1808    0.6920    0.0000 C   0  0  2  0  0  0  0  0  0  0  0  0
    7.0468    0.1920    0.0000 C   0  0  0  0  0  0  0  0  0  0  0  0
    5.3147    0.1920    0.0000 C   0  0  0  0  0  0  0  0  0  0  0  0
    7.0468   -2.8080    0.0000 C   0  0  0  0  0  0  0  0  0  0  0  0
    5.3147   -0.8080    0.0000 C   0  0  0  0  0  0  0  0  0  0  0  0
    5.3147    2.1920    0.0000 C   0  0  0  0  0  0  0  0  0  0  0  0
    7.0468    2.1920    0.0000 C   0  0  0  0  0  0  0  0  0  0  0  0
    5.3147    3.1920    0.0000 C   0  0  0  0  0  0  0  0  0  0  0  0
    7.0468   -3.8080    0.0000 C   0  0  0  0  0  0  0  0  0  0  0  0
    7.0468    3.1920    0.0000 C   0  0  0  0  0  0  0  0  0  0  0  0
    6.1808    3.6920    0.0000 C   0  0  0  0  0  0  0  0  0  0  0  0
    6.1808   -5.3080    0.0000 C   0  0  0  0  0  0  0  0  0  0  0  0
    4.4487    4.6920    0.0000 C   0  0  0  0  0  0  0  0  0  0  0  0
    5.3147   -5.8080    0.0000 C   0  0  0  0  0  0  0  0  0  0  0  0
    3.5827    5.1920    0.0000 C   0  0  0  0  0  0  0  0  0  0  0  0
    3.4782    6.1865    0.0000 C   0  0  0  0  0  0  0  0  0  0  0  0
    4.4487   -5.3080    0.0000 C   0  0  0  0  0  0  0  0  0  0  0  0
    5.3147   -6.8080    0.0000 C   0  0  0  0  0  0  0  0  0  0  0  0
    2.5000    6.3944    0.0000 C   0  0  0  0  0  0  0  0  0  0  0  0
    3.5827   -5.8080    0.0000 C   0  0  0  0  0  0  0  0  0  0  0  0
    4.4487   -7.3080    0.0000 C   0  0  0  0  0  0  0  0  0  0  0  0
    3.5827   -6.8080    0.0000 C   0  0  0  0  0  0  0  0  0  0  0  0
    2.0933    7.3080    0.0000 C   0  0  0  0  0  0  0  0  0  0  0  0
    9.1249   -1.6457    0.0000 H   0  0  0  0  0  0  0  0  0  0  0  0
    9.1774   -0.3330    0.0000 H   0  0  0  0  0  0  0  0  0  0  0  0
    8.3803   -0.3330    0.0000 H   0  0  0  0  0  0  0  0  0  0  0  0
    9.1294   -2.3025    0.0000 H   0  0  0  0  0  0  0  0  0  0  0  0
    9.6846   -2.9191    0.0000 H   0  0  0  0  0  0  0  0  0  0  0  0
    7.9128   -0.6880    0.0000 H   0  0  0  0  0  0  0  0  0  0  0  0
   10.5359   -3.1001    0.0000 H   0  0  0  0  0  0  0  0  0  0  0  0
   11.2939   -2.7626    0.0000 H   0  0  0  0  0  0  0  0  0  0  0  0
   11.8441   -1.5796    0.0000 H   0  0  0  0  0  0  0  0  0  0  0  0
    6.5098   -1.1180    0.0000 H   0  0  0  0  0  0  0  0  0  0  0  0
    8.4497   -2.6180    0.0000 H   0  0  0  0  0  0  0  0  0  0  0  0
    6.1808    0.0720    0.0000 H   0  0  0  0  0  0  0  0  0  0  0  0
    5.1027    0.7746    0.0000 H   0  0  0  0  0  0  0  0  0  0  0  0
    4.7042    0.0843    0.0000 H   0  0  0  0  0  0  0  0  0  0  0  0
    6.5098   -2.4980    0.0000 H   0  0  0  0  0  0  0  0  0  0  0  0
    4.6947   -0.8080    0.0000 H   0  0  0  0  0  0  0  0  0  0  0  0
    5.3147   -1.4280    0.0000 H   0  0  0  0  0  0  0  0  0  0  0  0
    5.9347   -0.8080    0.0000 H   0  0  0  0  0  0  0  0  0  0  0  0
    7.5837    1.8820    0.0000 H   0  0  0  0  0  0  0  0  0  0  0  0
    7.5837    3.5020    0.0000 H   0  0  0  0  0  0  0  0  0  0  0  0
    6.1808    4.3120    0.0000 H   0  0  0  0  0  0  0  0  0  0  0  0
    3.9118    3.3820    0.0000 H   0  0  0  0  0  0  0  0  0  0  0  0
    6.3928   -5.8906    0.0000 H   0  0  0  0  0  0  0  0  0  0  0  0
    6.7913   -5.2003    0.0000 H   0  0  0  0  0  0  0  0  0  0  0  0
    3.9389    6.6014    0.0000 H   0  0  0  0  0  0  0  0  0  0  0  0
    4.4487   -4.6880    0.0000 H   0  0  0  0  0  0  0  0  0  0  0  0
    5.8517   -7.1180    0.0000 H   0  0  0  0  0  0  0  0  0  0  0  0
    3.0457   -5.4980    0.0000 H   0  0  0  0  0  0  0  0  0  0  0  0
    4.4487   -7.9280    0.0000 H   0  0  0  0  0  0  0  0  0  0  0  0
    3.0457   -7.1180    0.0000 H   0  0  0  0  0  0  0  0  0  0  0  0
    2.6597    7.5602    0.0000 H   0  0  0  0  0  0  0  0  0  0  0  0
    1.8411    7.8744    0.0000 H   0  0  0  0  0  0  0  0  0  0  0  0
    1.5269    7.0558    0.0000 H   0  0  0  0  0  0  0  0  0  0  0  0
  1 18  2  0  0  0  0
  2 21  2  0  0  0  0
  3 25  2  0  0  0  0
  4 28  1  0  0  0  0
  4 31  1  0  0  0  0
  5 28  2  0  0  0  0
  6 32  2  0  0  0  0
  7 12  1  0  0  0  0
  7 38  1  0  0  0  0
  8 17  1  0  0  0  0
  8 18  1  0  0  0  0
  8 51  1  0  0  0  0
 16  9  1  1  0  0  0
  9 21  1  0  0  0  0
  9 52  1  0  0  0  0
 10 20  1  0  0  0  0
 10 25  1  0  0  0  0
 10 26  1  0  0  0  0
 11 27  1  0  0  0  0
 11 32  1  0  0  0  0
 11 64  1  0  0  0  0
 12 34  2  0  0  0  0
 13 14  1  1  0  0  0
 13 15  1  0  0  0  0
 13 18  1  0  0  0  0
 13 43  1  0  0  0  0
 14 16  1  0  0  0  0
 14 44  1  0  0  0  0
 14 45  1  0  0  0  0
 15 17  1  0  0  0  0
 15 46  1  0  0  0  0
 15 47  1  0  0  0  0
 16 19  1  0  0  0  0
 16 48  1  0  0  0  0
 17 49  1  0  0  0  0
 17 50  1  0  0  0  0
 19 23  2  0  0  0  0
 19 53  1  0  0  0  0
 20 21  1  0  0  0  0
 20 22  1  6  0  0  0
 20 54  1  0  0  0  0
 22 24  1  0  0  0  0
 22 55  1  0  0  0  0
 22 56  1  0  0  0  0
 23 28  1  0  0  0  0
 23 57  1  0  0  0  0
 24 58  1  0  0  0  0
 24 59  1  0  0  0  0
 24 60  1  0  0  0  0
 25 27  1  0  0  0  0
 26 29  2  0  0  0  0
 26 61  1  0  0  0  0
 27 30  2  0  0  0  0
 29 30  1  0  0  0  0
 29 62  1  0  0  0  0
 30 63  1  0  0  0  0
 31 33  1  0  0  0  0
 31 65  1  0  0  0  0
 31 66  1  0  0  0  0
 32 34  1  0  0  0  0
 33 36  2  0  0  0  0
 33 37  1  0  0  0  0
 34 35  1  0  0  0  0
 35 38  2  0  0  0  0
 35 67  1  0  0  0  0
 36 39  1  0  0  0  0
 36 68  1  0  0  0  0
 37 40  2  0  0  0  0
 37 69  1  0  0  0  0
 38 42  1  0  0  0  0
 39 41  2  0  0  0  0
 39 70  1  0  0  0  0
 40 41  1  0  0  0  0
 40 71  1  0  0  0  0
 41 72  1  0  0  0  0
 42 73  1  0  0  0  0
 42 74  1  0  0  0  0
 42 75  1  0  0  0  0
M  END
> <PUBCHEM_COMPOUND_CID>
6478681

> <PUBCHEM_COMPOUND_CANONICALIZED>
1

> <PUBCHEM_CACTVS_COMPLEXITY>
1110

> <PUBCHEM_CACTVS_HBOND_ACCEPTOR>
8

> <PUBCHEM_CACTVS_HBOND_DONOR>
3

> <PUBCHEM_CACTVS_ROTATABLE_BOND>
13

> <PUBCHEM_CACTVS_SUBSKEYS>
AAADcfB7uAAAAAAAAAAAAAAAAAAAAWLAAAAwQAAAAAAAAAABwAAAHgAUAAAADSzhngYyjJPQBACpA6X2WgCCAAAmIgAomKG+bNoIZjqAtbuWMYhm1hmI6ce/wCAOAAAAAAAAAAAAAAAAAAAAAAAAAAAAAA==

> <PUBCHEM_IUPAC_OPENEYE_NAME>
benzyl (E,4S)-4-[[(2S)-2-[3-[(5-methylisoxazole-3-carbonyl)amino]-2-oxo-1-pyridyl]butanoyl]amino]-5-[(3S)-2-oxopyrrolidin-3-yl]pent-2-enoate

> <PUBCHEM_IUPAC_CAS_NAME>
(E,4S)-4-[[(2S)-2-[3-[[(5-methyl-3-isoxazolyl)-oxomethyl]amino]-2-oxo-1-pyridinyl]-1-oxobutyl]amino]-5-[(3S)-2-oxo-3-pyrrolidinyl]-2-pentenoic acid (phenylmethyl) ester

> <PUBCHEM_IUPAC_NAME_MARKUP>
benzyl (<I>E</I>,4<I>S</I>)-4-[[(2<I>S</I>)-2-[3-[(5-methyl-1,2-oxazole-3-carbonyl)amino]-2-oxopyridin-1-yl]butanoyl]amino]-5-[(3<I>S</I>)-2-oxopyrrolidin-3-yl]pent-2-enoate

> <PUBCHEM_IUPAC_NAME>
benzyl (E,4S)-4-[[(2S)-2-[3-[(5-methyl-1,2-oxazole-3-carbonyl)amino]-2-oxopyridin-1-yl]butanoyl]amino]-5-[(3S)-2-oxopyrrolidin-3-yl]pent-2-enoate

> <PUBCHEM_IUPAC_SYSTEMATIC_NAME>
(phenylmethyl) (E,4S)-4-[[(2S)-2-[3-[(5-methyl-1,2-oxazol-3-yl)carbonylamino]-2-oxidanylidene-pyridin-1-yl]butanoyl]amino]-5-[(3S)-2-oxidanylidenepyrrolidin-3-yl]pent-2-enoate

> <PUBCHEM_IUPAC_TRADITIONAL_NAME>
(E,4S)-4-[[(2S)-2-[2-keto-3-[(5-methylisoxazole-3-carbonyl)amino]-1-pyridyl]butanoyl]amino]-5-[(3S)-2-ketopyrrolidin-3-yl]pent-2-enoic acid benzyl ester

> <PUBCHEM_IUPAC_INCHI>
InChI=1S/C30H33N5O7/c1-3-25(35-15-7-10-23(30(35)40)33-28(38)24-16-19(2)42-34-24)29(39)32-22(17-21-13-14-31-27(21)37)11-12-26(36)41-18-20-8-5-4-6-9-20/h4-12,15-16,21-22,25H,3,13-14,17-18H2,1-2H3,(H,31,37)(H,32,39)(H,33,38)/b12-11+/t21-,22+,25-/m0/s1

> <PUBCHEM_IUPAC_INCHIKEY>
JCRZIFCWUXJHSS-CKQBFUQQSA-N

> <PUBCHEM_XLOGP3_AA>
2.3

> <PUBCHEM_EXACT_MASS>
575.237998

> <PUBCHEM_MOLECULAR_FORMULA>
C30H33N5O7

> <PUBCHEM_MOLECULAR_WEIGHT>
575.6

> <PUBCHEM_OPENEYE_CAN_SMILES>
CCC(C(=O)NC(CC1CCNC1=O)C=CC(=O)OCC2=CC=CC=C2)N3C=CC=C(C3=O)NC(=O)C4=NOC(=C4)C

> <PUBCHEM_OPENEYE_ISO_SMILES>
CC[C@@H](C(=O)N[C@@H](C[C@@H]1CCNC1=O)/C=C/C(=O)OCC2=CC=CC=C2)N3C=CC=C(C3=O)NC(=O)C4=NOC(=C4)C

> <PUBCHEM_CACTVS_TPSA>
160

> <PUBCHEM_MONOISOTOPIC_WEIGHT>
575.237998

> <PUBCHEM_TOTAL_CHARGE>
0

> <PUBCHEM_HEAVY_ATOM_COUNT>
42

> <PUBCHEM_ATOM_DEF_STEREO_COUNT>
3

> <PUBCHEM_ATOM_UDEF_STEREO_COUNT>
0

> <PUBCHEM_BOND_DEF_STEREO_COUNT>
1

> <PUBCHEM_BOND_UDEF_STEREO_COUNT>
0

> <PUBCHEM_ISOTOPIC_ATOM_COUNT>
0

> <PUBCHEM_COMPONENT_COUNT>
1

> <PUBCHEM_CACTVS_TAUTO_COUNT>
-1

> <PUBCHEM_COORDINATE_TYPE>
1
5
255

> <PUBCHEM_BONDANNOTATIONS>
10  25  8
10  26  8
12  34  8
13  14  5
20  22  6
25  27  8
26  29  8
27  30  8
29  30  8
33  36  8
33  37  8
34  35  8
35  38  8
36  39  8
37  40  8
39  41  8
40  41  8
7  12  8
7  38  8
16  9  5

$$$$
6479024
  -OEChem-02212016592D

 74 77  0     1  0  0  0  0  0999 V2000
   10.7663    0.0769    0.0000 O   0  0  0  0  0  0  0  0  0  0  0  0
    7.9128    0.6920    0.0000 O   0  0  0  0  0  0  0  0  0  0  0  0
    6.1808   -4.3080    0.0000 O   0  0  0  0  0  0  0  0  0  0  0  0
    4.4487    1.6920    0.0000 O   0  0  0  0  0  0  0  0  0  0  0  0
    7.9128   -4.3080    0.0000 O   0  0  0  0  0  0  0  0  0  0  0  0
    5.3147    5.1920    0.0000 O   0  0  0  0  0  0  0  0  0  0  0  0
    2.0000    5.5284    0.0000 O   0  0  0  0  0  0  0  0  0  0  0  0
   11.2275   -1.6444    0.0000 N   0  0  0  0  0  0  0  0  0  0  0  0
    7.0468   -0.8080    0.0000 N   0  0  0  0  0  0  0  0  0  0  0  0
    6.1808    1.6920    0.0000 N   0  0  0  0  0  0  0  0  0  0  0  0
    4.4487    3.6920    0.0000 N   0  0  0  0  0  0  0  0  0  0  0  0
    2.6691    4.7853    0.0000 N   0  0  0  0  0  0  0  0  0  0  0  0
    9.6448   -1.3080    0.0000 C   0  0  1  0  0  0  0  0  0  0  0  0
    9.7494   -2.3025    0.0000 C   0  0  0  0  0  0  0  0  0  0  0  0
    8.7788   -0.8080    0.0000 C   0  0  0  0  0  0  0  0  0  0  0  0
   10.7275   -2.5104    0.0000 C   0  0  0  0  0  0  0  0  0  0  0  0
    7.9128   -1.3080    0.0000 C   0  0  1  0  0  0  0  0  0  0  0  0
   10.5584   -0.9013    0.0000 C   0  0  0  0  0  0  0  0  0  0  0  0
    7.9128   -2.3080    0.0000 C   0  0  0  0  0  0  0  0  0  0  0  0
    7.0468    0.1920    0.0000 C   0  0  0  0  0  0  0  0  0  0  0  0
    6.1808    0.6920    0.0000 C   0  0  2  0  0  0  0  0  0  0  0  0
    7.0468   -2.8080    0.0000 C   0  0  0  0  0  0  0  0  0  0  0  0
    5.3147    0.1920    0.0000 C   0  0  0  0  0  0  0  0  0  0  0  0
    5.3147    2.1920    0.0000 C   0  0  0  0  0  0  0  0  0  0  0  0
    7.0468    2.1920    0.0000 C   0  0  0  0  0  0  0  0  0  0  0  0
    7.0468   -3.8080    0.0000 C   0  0  0  0  0  0  0  0  0  0  0  0
    5.3147    3.1920    0.0000 C   0  0  0  0  0  0  0  0  0  0  0  0
    7.0468    3.1920    0.0000 C   0  0  0  0  0  0  0  0  0  0  0  0
    5.3147   -0.8080    0.0000 C   0  0  0  0  0  0  0  0  0  0  0  0
    6.1808    3.6920    0.0000 C   0  0  0  0  0  0  0  0  0  0  0  0
    6.1808   -5.3080    0.0000 C   0  0  0  0  0  0  0  0  0  0  0  0
    4.4487    4.6920    0.0000 C   0  0  0  0  0  0  0  0  0  0  0  0
    5.3147   -1.8080    0.0000 C   0  0  0  0  0  0  0  0  0  0  0  0
    5.3147   -5.8080    0.0000 C   0  0  0  0  0  0  0  0  0  0  0  0
    3.5827    5.1920    0.0000 C   0  0  0  0  0  0  0  0  0  0  0  0
    4.4487   -5.3080    0.0000 C   0  0  0  0  0  0  0  0  0  0  0  0
    5.3147   -6.8080    0.0000 C   0  0  0  0  0  0  0  0  0  0  0  0
    3.4782    6.1865    0.0000 C   0  0  0  0  0  0  0  0  0  0  0  0
    2.5000    6.3944    0.0000 C   0  0  0  0  0  0  0  0  0  0  0  0
    3.5827   -5.8080    0.0000 C   0  0  0  0  0  0  0  0  0  0  0  0
    4.4487   -7.3080    0.0000 C   0  0  0  0  0  0  0  0  0  0  0  0
    3.5827   -6.8080    0.0000 C   0  0  0  0  0  0  0  0  0  0  0  0
    2.0933    7.3080    0.0000 C   0  0  0  0  0  0  0  0  0  0  0  0
    9.1249   -1.6457    0.0000 H   0  0  0  0  0  0  0  0  0  0  0  0
    9.1294   -2.3025    0.0000 H   0  0  0  0  0  0  0  0  0  0  0  0
    9.6846   -2.9191    0.0000 H   0  0  0  0  0  0  0  0  0  0  0  0
    9.1774   -0.3330    0.0000 H   0  0  0  0  0  0  0  0  0  0  0  0
    8.3803   -0.3330    0.0000 H   0  0  0  0  0  0  0  0  0  0  0  0
   10.5359   -3.1001    0.0000 H   0  0  0  0  0  0  0  0  0  0  0  0
   11.2939   -2.7626    0.0000 H   0  0  0  0  0  0  0  0  0  0  0  0
    7.9128   -0.6880    0.0000 H   0  0  0  0  0  0  0  0  0  0  0  0
   11.8441   -1.5796    0.0000 H   0  0  0  0  0  0  0  0  0  0  0  0
    6.5098   -1.1180    0.0000 H   0  0  0  0  0  0  0  0  0  0  0  0
    8.4497   -2.6180    0.0000 H   0  0  0  0  0  0  0  0  0  0  0  0
    6.7177    1.0020    0.0000 H   0  0  0  0  0  0  0  0  0  0  0  0
    6.5098   -2.4980    0.0000 H   0  0  0  0  0  0  0  0  0  0  0  0
    5.1027    0.7746    0.0000 H   0  0  0  0  0  0  0  0  0  0  0  0
    4.7042    0.0843    0.0000 H   0  0  0  0  0  0  0  0  0  0  0  0
    7.5837    1.8820    0.0000 H   0  0  0  0  0  0  0  0  0  0  0  0
    7.5837    3.5020    0.0000 H   0  0  0  0  0  0  0  0  0  0  0  0
    6.1808    4.3120    0.0000 H   0  0  0  0  0  0  0  0  0  0  0  0
    3.9118    3.3820    0.0000 H   0  0  0  0  0  0  0  0  0  0  0  0
    6.3928   -5.8906    0.0000 H   0  0  0  0  0  0  0  0  0  0  0  0
    6.7913   -5.2003    0.0000 H   0  0  0  0  0  0  0  0  0  0  0  0
    5.3147   -2.4280    0.0000 H   0  0  0  0  0  0  0  0  0  0  0  0
    4.4487   -4.6880    0.0000 H   0  0  0  0  0  0  0  0  0  0  0  0
    5.8517   -7.1180    0.0000 H   0  0  0  0  0  0  0  0  0  0  0  0
    3.9389    6.6014    0.0000 H   0  0  0  0  0  0  0  0  0  0  0  0
    3.0457   -5.4980    0.0000 H   0  0  0  0  0  0  0  0  0  0  0  0
    4.4487   -7.9280    0.0000 H   0  0  0  0  0  0  0  0  0  0  0  0
    3.0457   -7.1180    0.0000 H   0  0  0  0  0  0  0  0  0  0  0  0
    2.6597    7.5602    0.0000 H   0  0  0  0  0  0  0  0  0  0  0  0
    1.8411    7.8744    0.0000 H   0  0  0  0  0  0  0  0  0  0  0  0
    1.5269    7.0558    0.0000 H   0  0  0  0  0  0  0  0  0  0  0  0
  1 18  2  0  0  0  0
  2 20  2  0  0  0  0
  3 26  1  0  0  0  0
  3 31  1  0  0  0  0
  4 24  2  0  0  0  0
  5 26  2  0  0  0  0
  6 32  2  0  0  0  0
  7 12  1  0  0  0  0
  7 39  1  0  0  0  0
  8 16  1  0  0  0  0
  8 18  1  0  0  0  0
  8 52  1  0  0  0  0
 17  9  1  1  0  0  0
  9 20  1  0  0  0  0
  9 53  1  0  0  0  0
 10 21  1  0  0  0  0
 10 24  1  0  0  0  0
 10 25  1  0  0  0  0
 11 27  1  0  0  0  0
 11 32  1  0  0  0  0
 11 62  1  0  0  0  0
 12 35  2  0  0  0  0
 13 14  1  0  0  0  0
 13 15  1  1  0  0  0
 13 18  1  0  0  0  0
 13 44  1  0  0  0  0
 14 16  1  0  0  0  0
 14 45  1  0  0  0  0
 14 46  1  0  0  0  0
 15 17  1  0  0  0  0
 15 47  1  0  0  0  0
 15 48  1  0  0  0  0
 16 49  1  0  0  0  0
 16 50  1  0  0  0  0
 17 19  1  0  0  0  0
 17 51  1  0  0  0  0
 19 22  2  0  0  0  0
 19 54  1  0  0  0  0
 21 20  1  6  0  0  0
 21 23  1  0  0  0  0
 21 55  1  0  0  0  0
 22 26  1  0  0  0  0
 22 56  1  0  0  0  0
 23 29  1  0  0  0  0
 23 57  1  0  0  0  0
 23 58  1  0  0  0  0
 24 27  1  0  0  0  0
 25 28  2  0  0  0  0
 25 59  1  0  0  0  0
 27 30  2  0  0  0  0
 28 30  1  0  0  0  0
 28 60  1  0  0  0  0
 29 33  3  0  0  0  0
 30 61  1  0  0  0  0
 31 34  1  0  0  0  0
 31 63  1  0  0  0  0
 31 64  1  0  0  0  0
 32 35  1  0  0  0  0
 33 65  1  0  0  0  0
 34 36  2  0  0  0  0
 34 37  1  0  0  0  0
 35 38  1  0  0  0  0
 36 40  1  0  0  0  0
 36 66  1  0  0  0  0
 37 41  2  0  0  0  0
 37 67  1  0  0  0  0
 38 39  2  0  0  0  0
 38 68  1  0  0  0  0
 39 43  1  0  0  0  0
 40 42  2  0  0  0  0
 40 69  1  0  0  0  0
 41 42  1  0  0  0  0
 41 70  1  0  0  0  0
 42 71  1  0  0  0  0
 43 72  1  0  0  0  0
 43 73  1  0  0  0  0
 43 74  1  0  0  0  0
M  END
> <PUBCHEM_COMPOUND_CID>
6479024

> <PUBCHEM_COMPOUND_CANONICALIZED>
1

> <PUBCHEM_CACTVS_COMPLEXITY>
1210

> <PUBCHEM_CACTVS_HBOND_ACCEPTOR>
8

> <PUBCHEM_CACTVS_HBOND_DONOR>
3

> <PUBCHEM_CACTVS_ROTATABLE_BOND>
13

> <PUBCHEM_CACTVS_SUBSKEYS>
AAADceB7uAAAAAAAAAAAAAAAAAAAAWLAAAAwQAAAAAAAAAABwAAAHgAUAAAADSzhngYyjJPQBADpG6X2WgiCAAAmIgAomKG+bNoIZjqAtbuWMYhm1hmI6ce/wCAOAAAAAAAAAAAAAAAAAAAAAAAAAAAAAA==

> <PUBCHEM_IUPAC_OPENEYE_NAME>
benzyl (E,4S)-4-[[(2S)-2-[3-[(5-methylisoxazole-3-carbonyl)amino]-2-oxo-1-pyridyl]pent-4-ynoyl]amino]-5-[(3S)-2-oxopyrrolidin-3-yl]pent-2-enoate

> <PUBCHEM_IUPAC_CAS_NAME>
(E,4S)-4-[[(2S)-2-[3-[[(5-methyl-3-isoxazolyl)-oxomethyl]amino]-2-oxo-1-pyridinyl]-1-oxopent-4-ynyl]amino]-5-[(3S)-2-oxo-3-pyrrolidinyl]-2-pentenoic acid (phenylmethyl) ester

> <PUBCHEM_IUPAC_NAME_MARKUP>
benzyl (<I>E</I>,4<I>S</I>)-4-[[(2<I>S</I>)-2-[3-[(5-methyl-1,2-oxazole-3-carbonyl)amino]-2-oxopyridin-1-yl]pent-4-ynoyl]amino]-5-[(3<I>S</I>)-2-oxopyrrolidin-3-yl]pent-2-enoate

> <PUBCHEM_IUPAC_NAME>
benzyl (E,4S)-4-[[(2S)-2-[3-[(5-methyl-1,2-oxazole-3-carbonyl)amino]-2-oxopyridin-1-yl]pent-4-ynoyl]amino]-5-[(3S)-2-oxopyrrolidin-3-yl]pent-2-enoate

> <PUBCHEM_IUPAC_SYSTEMATIC_NAME>
(phenylmethyl) (E,4S)-4-[[(2S)-2-[3-[(5-methyl-1,2-oxazol-3-yl)carbonylamino]-2-oxidanylidene-pyridin-1-yl]pent-4-ynoyl]amino]-5-[(3S)-2-oxidanylidenepyrrolidin-3-yl]pent-2-enoate

> <PUBCHEM_IUPAC_TRADITIONAL_NAME>
(E,4S)-4-[[(2S)-2-[2-keto-3-[(5-methylisoxazole-3-carbonyl)amino]-1-pyridyl]pent-4-ynoyl]amino]-5-[(3S)-2-ketopyrrolidin-3-yl]pent-2-enoic acid benzyl ester

> <PUBCHEM_IUPAC_INCHI>
InChI=1S/C31H31N5O7/c1-3-8-26(36-16-7-11-24(31(36)41)34-29(39)25-17-20(2)43-35-25)30(40)33-23(18-22-14-15-32-28(22)38)12-13-27(37)42-19-21-9-5-4-6-10-21/h1,4-7,9-13,16-17,22-23,26H,8,14-15,18-19H2,2H3,(H,32,38)(H,33,40)(H,34,39)/b13-12+/t22-,23+,26-/m0/s1

> <PUBCHEM_IUPAC_INCHIKEY>
OAMLXQDGOIMGAF-KRGVZGDRSA-N

> <PUBCHEM_XLOGP3_AA>
2

> <PUBCHEM_EXACT_MASS>
585.222348

> <PUBCHEM_MOLECULAR_FORMULA>
C31H31N5O7

> <PUBCHEM_MOLECULAR_WEIGHT>
585.6

> <PUBCHEM_OPENEYE_CAN_SMILES>
CC1=CC(=NO1)C(=O)NC2=CC=CN(C2=O)C(CC#C)C(=O)NC(CC3CCNC3=O)C=CC(=O)OCC4=CC=CC=C4

> <PUBCHEM_OPENEYE_ISO_SMILES>
CC1=CC(=NO1)C(=O)NC2=CC=CN(C2=O)[C@@H](CC#C)C(=O)N[C@@H](C[C@@H]3CCNC3=O)/C=C/C(=O)OCC4=CC=CC=C4

> <PUBCHEM_CACTVS_TPSA>
160

> <PUBCHEM_MONOISOTOPIC_WEIGHT>
585.222348

> <PUBCHEM_TOTAL_CHARGE>
0

> <PUBCHEM_HEAVY_ATOM_COUNT>
43

> <PUBCHEM_ATOM_DEF_STEREO_COUNT>
3

> <PUBCHEM_ATOM_UDEF_STEREO_COUNT>
0

> <PUBCHEM_BOND_DEF_STEREO_COUNT>
1

> <PUBCHEM_BOND_UDEF_STEREO_COUNT>
0

> <PUBCHEM_ISOTOPIC_ATOM_COUNT>
0

> <PUBCHEM_COMPONENT_COUNT>
1

> <PUBCHEM_CACTVS_TAUTO_COUNT>
-1

> <PUBCHEM_COORDINATE_TYPE>
1
5
255

> <PUBCHEM_BONDANNOTATIONS>
10  24  8
10  25  8
12  35  8
13  15  5
21  20  6
24  27  8
25  28  8
27  30  8
28  30  8
34  36  8
34  37  8
35  38  8
36  40  8
37  41  8
38  39  8
40  42  8
41  42  8
7  12  8
7  39  8
17  9  5

$$$$
10122331
  -OEChem-02212016592D

 82 86  0     1  0  0  0  0  0999 V2000
    3.5827   -4.5580    0.0000 F   0  0  0  0  0  0  0  0  0  0  0  0
    5.3147   -5.5580    0.0000 F   0  0  0  0  0  0  0  0  0  0  0  0
   10.5109    1.4420    0.0000 O   0  0  0  0  0  0  0  0  0  0  0  0
    9.0062   -4.7216    0.0000 O   0  0  0  0  0  0  0  0  0  0  0  0
    7.0468   -2.5580    0.0000 O   0  0  0  0  0  0  0  0  0  0  0  0
   11.3769   -0.0580    0.0000 O   0  0  0  0  0  0  0  0  0  0  0  0
    4.4487   -0.0580    0.0000 O   0  0  0  0  0  0  0  0  0  0  0  0
    5.3147    3.4420    0.0000 O   0  0  0  0  0  0  0  0  0  0  0  0
    2.0000    3.7784    0.0000 O   0  0  0  0  0  0  0  0  0  0  0  0
   10.7275   -4.2604    0.0000 N   0  0  0  0  0  0  0  0  0  0  0  0
    7.9128   -1.0580    0.0000 N   0  0  0  0  0  0  0  0  0  0  0  0
    6.1808   -0.0580    0.0000 N   0  0  0  0  0  0  0  0  0  0  0  0
    4.4487    1.9420    0.0000 N   0  0  0  0  0  0  0  0  0  0  0  0
    2.6691    3.0353    0.0000 N   0  0  0  0  0  0  0  0  0  0  0  0
    9.6448   -3.0580    0.0000 C   0  0  2  0  0  0  0  0  0  0  0  0
   11.3769    1.9420    0.0000 C   0  0  0  0  0  0  0  0  0  0  0  0
   11.4814    2.9365    0.0000 C   0  0  0  0  0  0  0  0  0  0  0  0
   12.2905    1.5353    0.0000 C   0  0  0  0  0  0  0  0  0  0  0  0
    8.7788   -2.5580    0.0000 C   0  0  0  0  0  0  0  0  0  0  0  0
   12.4596    3.1444    0.0000 C   0  0  0  0  0  0  0  0  0  0  0  0
   12.9596    2.2784    0.0000 C   0  0  0  0  0  0  0  0  0  0  0  0
   10.5584   -2.6512    0.0000 C   0  0  0  0  0  0  0  0  0  0  0  0
    8.7788   -1.5580    0.0000 C   0  0  1  0  0  0  0  0  0  0  0  0
   11.2275   -3.3944    0.0000 C   0  0  0  0  0  0  0  0  0  0  0  0
    9.7494   -4.0525    0.0000 C   0  0  0  0  0  0  0  0  0  0  0  0
    9.6448   -1.0580    0.0000 C   0  0  0  0  0  0  0  0  0  0  0  0
    6.1808   -1.0580    0.0000 C   0  0  2  0  0  0  0  0  0  0  0  0
    7.0468   -1.5580    0.0000 C   0  0  0  0  0  0  0  0  0  0  0  0
    9.6448   -0.0580    0.0000 C   0  0  0  0  0  0  0  0  0  0  0  0
   10.5109    0.4420    0.0000 C   0  0  0  0  0  0  0  0  0  0  0  0
    5.3147   -1.5580    0.0000 C   0  0  0  0  0  0  0  0  0  0  0  0
    5.3147   -2.5580    0.0000 C   0  0  0  0  0  0  0  0  0  0  0  0
    5.3147    0.4420    0.0000 C   0  0  0  0  0  0  0  0  0  0  0  0
    7.0468    0.4420    0.0000 C   0  0  0  0  0  0  0  0  0  0  0  0
    5.3147    1.4420    0.0000 C   0  0  0  0  0  0  0  0  0  0  0  0
    4.4487   -3.0580    0.0000 C   0  0  0  0  0  0  0  0  0  0  0  0
    6.1808   -3.0580    0.0000 C   0  0  0  0  0  0  0  0  0  0  0  0
    7.0468    1.4420    0.0000 C   0  0  0  0  0  0  0  0  0  0  0  0
    6.1808    1.9420    0.0000 C   0  0  0  0  0  0  0  0  0  0  0  0
    4.4487   -4.0580    0.0000 C   0  0  0  0  0  0  0  0  0  0  0  0
    6.1808   -4.0580    0.0000 C   0  0  0  0  0  0  0  0  0  0  0  0
    5.3147   -4.5580    0.0000 C   0  0  0  0  0  0  0  0  0  0  0  0
    4.4487    2.9420    0.0000 C   0  0  0  0  0  0  0  0  0  0  0  0
    3.5827    3.4420    0.0000 C   0  0  0  0  0  0  0  0  0  0  0  0
    3.4782    4.4365    0.0000 C   0  0  0  0  0  0  0  0  0  0  0  0
    2.5000    4.6444    0.0000 C   0  0  0  0  0  0  0  0  0  0  0  0
    2.0933    5.5580    0.0000 C   0  0  0  0  0  0  0  0  0  0  0  0
    9.1249   -3.3957    0.0000 H   0  0  0  0  0  0  0  0  0  0  0  0
   10.8569    2.2797    0.0000 H   0  0  0  0  0  0  0  0  0  0  0  0
   11.4166    3.5531    0.0000 H   0  0  0  0  0  0  0  0  0  0  0  0
   10.8614    2.9365    0.0000 H   0  0  0  0  0  0  0  0  0  0  0  0
   11.9804    0.9983    0.0000 H   0  0  0  0  0  0  0  0  0  0  0  0
   12.7920    1.1708    0.0000 H   0  0  0  0  0  0  0  0  0  0  0  0
    8.1682   -2.4503    0.0000 H   0  0  0  0  0  0  0  0  0  0  0  0
    8.5668   -3.1406    0.0000 H   0  0  0  0  0  0  0  0  0  0  0  0
   13.0260    3.3966    0.0000 H   0  0  0  0  0  0  0  0  0  0  0  0
   12.2680    3.7341    0.0000 H   0  0  0  0  0  0  0  0  0  0  0  0
   13.3744    1.8177    0.0000 H   0  0  0  0  0  0  0  0  0  0  0  0
   13.4612    2.6428    0.0000 H   0  0  0  0  0  0  0  0  0  0  0  0
   11.0600   -2.2868    0.0000 H   0  0  0  0  0  0  0  0  0  0  0  0
   10.2484   -2.1143    0.0000 H   0  0  0  0  0  0  0  0  0  0  0  0
    8.2419   -1.8680    0.0000 H   0  0  0  0  0  0  0  0  0  0  0  0
   11.7291   -3.7588    0.0000 H   0  0  0  0  0  0  0  0  0  0  0  0
   11.6424   -2.9336    0.0000 H   0  0  0  0  0  0  0  0  0  0  0  0
   10.9797   -4.8268    0.0000 H   0  0  0  0  0  0  0  0  0  0  0  0
    7.9128   -0.4380    0.0000 H   0  0  0  0  0  0  0  0  0  0  0  0
   10.1818   -1.3680    0.0000 H   0  0  0  0  0  0  0  0  0  0  0  0
    6.7177   -0.7480    0.0000 H   0  0  0  0  0  0  0  0  0  0  0  0
    9.1079    0.2520    0.0000 H   0  0  0  0  0  0  0  0  0  0  0  0
    5.1027   -0.9754    0.0000 H   0  0  0  0  0  0  0  0  0  0  0  0
    4.7042   -1.6656    0.0000 H   0  0  0  0  0  0  0  0  0  0  0  0
    7.5837    0.1320    0.0000 H   0  0  0  0  0  0  0  0  0  0  0  0
    3.9118   -2.7480    0.0000 H   0  0  0  0  0  0  0  0  0  0  0  0
    6.7177   -2.7480    0.0000 H   0  0  0  0  0  0  0  0  0  0  0  0
    7.5837    1.7520    0.0000 H   0  0  0  0  0  0  0  0  0  0  0  0
    6.1808    2.5620    0.0000 H   0  0  0  0  0  0  0  0  0  0  0  0
    6.7177   -4.3680    0.0000 H   0  0  0  0  0  0  0  0  0  0  0  0
    3.9118    1.6320    0.0000 H   0  0  0  0  0  0  0  0  0  0  0  0
    3.9389    4.8514    0.0000 H   0  0  0  0  0  0  0  0  0  0  0  0
    2.6597    5.8102    0.0000 H   0  0  0  0  0  0  0  0  0  0  0  0
    1.8411    6.1244    0.0000 H   0  0  0  0  0  0  0  0  0  0  0  0
    1.5269    5.3058    0.0000 H   0  0  0  0  0  0  0  0  0  0  0  0
  1 40  1  0  0  0  0
  2 42  1  0  0  0  0
  3 16  1  0  0  0  0
  3 30  1  0  0  0  0
  4 25  2  0  0  0  0
  5 28  2  0  0  0  0
  6 30  2  0  0  0  0
  7 33  2  0  0  0  0
  8 43  2  0  0  0  0
  9 14  1  0  0  0  0
  9 46  1  0  0  0  0
 10 24  1  0  0  0  0
 10 25  1  0  0  0  0
 10 65  1  0  0  0  0
 23 11  1  6  0  0  0
 11 28  1  0  0  0  0
 11 66  1  0  0  0  0
 12 27  1  0  0  0  0
 12 33  1  0  0  0  0
 12 34  1  0  0  0  0
 13 35  1  0  0  0  0
 13 43  1  0  0  0  0
 13 78  1  0  0  0  0
 14 44  2  0  0  0  0
 15 19  1  6  0  0  0
 15 22  1  0  0  0  0
 15 25  1  0  0  0  0
 15 48  1  0  0  0  0
 16 17  1  0  0  0  0
 16 18  1  0  0  0  0
 16 49  1  0  0  0  0
 17 20  1  0  0  0  0
 17 50  1  0  0  0  0
 17 51  1  0  0  0  0
 18 21  1  0  0  0  0
 18 52  1  0  0  0  0
 18 53  1  0  0  0  0
 19 23  1  0  0  0  0
 19 54  1  0  0  0  0
 19 55  1  0  0  0  0
 20 21  1  0  0  0  0
 20 56  1  0  0  0  0
 20 57  1  0  0  0  0
 21 58  1  0  0  0  0
 21 59  1  0  0  0  0
 22 24  1  0  0  0  0
 22 60  1  0  0  0  0
 22 61  1  0  0  0  0
 23 26  1  0  0  0  0
 23 62  1  0  0  0  0
 24 63  1  0  0  0  0
 24 64  1  0  0  0  0
 26 29  2  0  0  0  0
 26 67  1  0  0  0  0
 27 28  1  6  0  0  0
 27 31  1  0  0  0  0
 27 68  1  0  0  0  0
 29 30  1  0  0  0  0
 29 69  1  0  0  0  0
 31 32  1  0  0  0  0
 31 70  1  0  0  0  0
 31 71  1  0  0  0  0
 32 36  2  0  0  0  0
 32 37  1  0  0  0  0
 33 35  1  0  0  0  0
 34 38  2  0  0  0  0
 34 72  1  0  0  0  0
 35 39  2  0  0  0  0
 36 40  1  0  0  0  0
 36 73  1  0  0  0  0
 37 41  2  0  0  0  0
 37 74  1  0  0  0  0
 38 39  1  0  0  0  0
 38 75  1  0  0  0  0
 39 76  1  0  0  0  0
 40 42  2  0  0  0  0
 41 42  1  0  0  0  0
 41 77  1  0  0  0  0
 43 44  1  0  0  0  0
 44 45  1  0  0  0  0
 45 46  2  0  0  0  0
 45 79  1  0  0  0  0
 46 47  1  0  0  0  0
 47 80  1  0  0  0  0
 47 81  1  0  0  0  0
 47 82  1  0  0  0  0
M  END
> <PUBCHEM_COMPOUND_CID>
10122331

> <PUBCHEM_COMPOUND_CANONICALIZED>
1

> <PUBCHEM_CACTVS_COMPLEXITY>
1290

> <PUBCHEM_CACTVS_HBOND_ACCEPTOR>
10

> <PUBCHEM_CACTVS_HBOND_DONOR>
3

> <PUBCHEM_CACTVS_ROTATABLE_BOND>
13

> <PUBCHEM_CACTVS_SUBSKEYS>
AAADcfB/uYAAAAAAAAAAAAAAAAAAAeLEAAAwQAAAAAAAAAABwAAAHwAUAAAADTzhng4yjJPQBACpA6X2WgCCAAAmIgAomKG+bNoIZjqAtbOWMYhmlhiI6ce/iICOAAAAAAAAAAAAAAAAAAAAAAAAAAAAAA==

> <PUBCHEM_IUPAC_OPENEYE_NAME>
cyclopentyl (E,4S)-4-[[(2S)-3-(3,4-difluorophenyl)-2-[3-[(5-methylisoxazole-3-carbonyl)amino]-2-oxo-1-pyridyl]propanoyl]amino]-5-[(3S)-2-oxopyrrolidin-3-yl]pent-2-enoate

> <PUBCHEM_IUPAC_CAS_NAME>
(E,4S)-4-[[(2S)-3-(3,4-difluorophenyl)-2-[3-[[(5-methyl-3-isoxazolyl)-oxomethyl]amino]-2-oxo-1-pyridinyl]-1-oxopropyl]amino]-5-[(3S)-2-oxo-3-pyrrolidinyl]-2-pentenoic acid cyclopentyl ester

> <PUBCHEM_IUPAC_NAME_MARKUP>
cyclopentyl (<I>E</I>,4<I>S</I>)-4-[[(2<I>S</I>)-3-(3,4-difluorophenyl)-2-[3-[(5-methyl-1,2-oxazole-3-carbonyl)amino]-2-oxopyridin-1-yl]propanoyl]amino]-5-[(3<I>S</I>)-2-oxopyrrolidin-3-yl]pent-2-enoate

> <PUBCHEM_IUPAC_NAME>
cyclopentyl (E,4S)-4-[[(2S)-3-(3,4-difluorophenyl)-2-[3-[(5-methyl-1,2-oxazole-3-carbonyl)amino]-2-oxopyridin-1-yl]propanoyl]amino]-5-[(3S)-2-oxopyrrolidin-3-yl]pent-2-enoate

> <PUBCHEM_IUPAC_SYSTEMATIC_NAME>
cyclopentyl (E,4S)-4-[[(2S)-3-[3,4-bis(fluoranyl)phenyl]-2-[3-[(5-methyl-1,2-oxazol-3-yl)carbonylamino]-2-oxidanylidene-pyridin-1-yl]propanoyl]amino]-5-[(3S)-2-oxidanylidenepyrrolidin-3-yl]pent-2-enoate

> <PUBCHEM_IUPAC_TRADITIONAL_NAME>
(E,4S)-4-[[(2S)-3-(3,4-difluorophenyl)-2-[2-keto-3-[(5-methylisoxazole-3-carbonyl)amino]-1-pyridyl]propanoyl]amino]-5-[(3S)-2-ketopyrrolidin-3-yl]pent-2-enoic acid cyclopentyl ester

> <PUBCHEM_IUPAC_INCHI>
InChI=1S/C33H35F2N5O7/c1-19-15-27(39-47-19)31(43)38-26-7-4-14-40(33(26)45)28(17-20-8-10-24(34)25(35)16-20)32(44)37-22(18-21-12-13-36-30(21)42)9-11-29(41)46-23-5-2-3-6-23/h4,7-11,14-16,21-23,28H,2-3,5-6,12-13,17-18H2,1H3,(H,36,42)(H,37,44)(H,38,43)/b11-9+/t21-,22+,28-/m0/s1

> <PUBCHEM_IUPAC_INCHIKEY>
CUXVCXTXZGIJIV-XROKJQKSSA-N

> <PUBCHEM_XLOGP3_AA>
3.4

> <PUBCHEM_EXACT_MASS>
651.250455

> <PUBCHEM_MOLECULAR_FORMULA>
C33H35F2N5O7

> <PUBCHEM_MOLECULAR_WEIGHT>
651.7

> <PUBCHEM_OPENEYE_CAN_SMILES>
CC1=CC(=NO1)C(=O)NC2=CC=CN(C2=O)C(CC3=CC(=C(C=C3)F)F)C(=O)NC(CC4CCNC4=O)C=CC(=O)OC5CCCC5

> <PUBCHEM_OPENEYE_ISO_SMILES>
CC1=CC(=NO1)C(=O)NC2=CC=CN(C2=O)[C@@H](CC3=CC(=C(C=C3)F)F)C(=O)N[C@@H](C[C@@H]4CCNC4=O)/C=C/C(=O)OC5CCCC5

> <PUBCHEM_CACTVS_TPSA>
160

> <PUBCHEM_MONOISOTOPIC_WEIGHT>
651.250455

> <PUBCHEM_TOTAL_CHARGE>
0

> <PUBCHEM_HEAVY_ATOM_COUNT>
47

> <PUBCHEM_ATOM_DEF_STEREO_COUNT>
3

> <PUBCHEM_ATOM_UDEF_STEREO_COUNT>
0

> <PUBCHEM_BOND_DEF_STEREO_COUNT>
1

> <PUBCHEM_BOND_UDEF_STEREO_COUNT>
0

> <PUBCHEM_ISOTOPIC_ATOM_COUNT>
0

> <PUBCHEM_COMPONENT_COUNT>
1

> <PUBCHEM_CACTVS_TAUTO_COUNT>
-1

> <PUBCHEM_COORDINATE_TYPE>
1
5
255

> <PUBCHEM_BONDANNOTATIONS>
23  11  6
12  33  8
12  34  8
14  44  8
15  19  6
27  28  6
32  36  8
32  37  8
33  35  8
34  38  8
35  39  8
36  40  8
37  41  8
38  39  8
40  42  8
41  42  8
44  45  8
45  46  8
9  14  8
9  46  8

$$$$
10122355
  -OEChem-02212016592D

 84 87  0     1  0  0  0  0  0999 V2000
    3.5827   -4.5580    0.0000 F   0  0  0  0  0  0  0  0  0  0  0  0
    5.3147   -5.5580    0.0000 F   0  0  0  0  0  0  0  0  0  0  0  0
    9.0062   -4.7216    0.0000 O   0  0  0  0  0  0  0  0  0  0  0  0
    7.0468   -2.5580    0.0000 O   0  0  0  0  0  0  0  0  0  0  0  0
   10.5109    1.4420    0.0000 O   0  0  0  0  0  0  0  0  0  0  0  0
    4.4487   -0.0580    0.0000 O   0  0  0  0  0  0  0  0  0  0  0  0
   11.3769   -0.0580    0.0000 O   0  0  0  0  0  0  0  0  0  0  0  0
    5.3147    3.4420    0.0000 O   0  0  0  0  0  0  0  0  0  0  0  0
    2.0000    3.7784    0.0000 O   0  0  0  0  0  0  0  0  0  0  0  0
   10.7275   -4.2604    0.0000 N   0  0  0  0  0  0  0  0  0  0  0  0
    7.9128   -1.0580    0.0000 N   0  0  0  0  0  0  0  0  0  0  0  0
    6.1808   -0.0580    0.0000 N   0  0  0  0  0  0  0  0  0  0  0  0
    4.4487    1.9420    0.0000 N   0  0  0  0  0  0  0  0  0  0  0  0
    2.6691    3.0353    0.0000 N   0  0  0  0  0  0  0  0  0  0  0  0
    9.6448   -3.0580    0.0000 C   0  0  2  0  0  0  0  0  0  0  0  0
    8.7788   -2.5580    0.0000 C   0  0  0  0  0  0  0  0  0  0  0  0
   10.5584   -2.6512    0.0000 C   0  0  0  0  0  0  0  0  0  0  0  0
    8.7788   -1.5580    0.0000 C   0  0  1  0  0  0  0  0  0  0  0  0
   11.2275   -3.3944    0.0000 C   0  0  0  0  0  0  0  0  0  0  0  0
    9.7494   -4.0525    0.0000 C   0  0  0  0  0  0  0  0  0  0  0  0
    9.6448   -1.0580    0.0000 C   0  0  0  0  0  0  0  0  0  0  0  0
    6.1808   -1.0580    0.0000 C   0  0  2  0  0  0  0  0  0  0  0  0
    7.0468   -1.5580    0.0000 C   0  0  0  0  0  0  0  0  0  0  0  0
    5.3147   -1.5580    0.0000 C   0  0  0  0  0  0  0  0  0  0  0  0
    9.6448   -0.0580    0.0000 C   0  0  0  0  0  0  0  0  0  0  0  0
   11.3769    2.9420    0.0000 C   0  0  0  0  0  0  0  0  0  0  0  0
    5.3147   -2.5580    0.0000 C   0  0  0  0  0  0  0  0  0  0  0  0
   11.3769    1.9420    0.0000 C   0  0  0  0  0  0  0  0  0  0  0  0
    5.3147    0.4420    0.0000 C   0  0  0  0  0  0  0  0  0  0  0  0
    7.0468    0.4420    0.0000 C   0  0  0  0  0  0  0  0  0  0  0  0
   10.5109    0.4420    0.0000 C   0  0  0  0  0  0  0  0  0  0  0  0
   11.3769    3.9420    0.0000 C   0  0  0  0  0  0  0  0  0  0  0  0
   12.3769    2.9420    0.0000 C   0  0  0  0  0  0  0  0  0  0  0  0
   10.3769    2.9420    0.0000 C   0  0  0  0  0  0  0  0  0  0  0  0
    5.3147    1.4420    0.0000 C   0  0  0  0  0  0  0  0  0  0  0  0
    4.4487   -3.0580    0.0000 C   0  0  0  0  0  0  0  0  0  0  0  0
    6.1808   -3.0580    0.0000 C   0  0  0  0  0  0  0  0  0  0  0  0
    7.0468    1.4420    0.0000 C   0  0  0  0  0  0  0  0  0  0  0  0
    6.1808    1.9420    0.0000 C   0  0  0  0  0  0  0  0  0  0  0  0
    4.4487   -4.0580    0.0000 C   0  0  0  0  0  0  0  0  0  0  0  0
    6.1808   -4.0580    0.0000 C   0  0  0  0  0  0  0  0  0  0  0  0
    5.3147   -4.5580    0.0000 C   0  0  0  0  0  0  0  0  0  0  0  0
    4.4487    2.9420    0.0000 C   0  0  0  0  0  0  0  0  0  0  0  0
    3.5827    3.4420    0.0000 C   0  0  0  0  0  0  0  0  0  0  0  0
    3.4782    4.4365    0.0000 C   0  0  0  0  0  0  0  0  0  0  0  0
    2.5000    4.6444    0.0000 C   0  0  0  0  0  0  0  0  0  0  0  0
    2.0933    5.5580    0.0000 C   0  0  0  0  0  0  0  0  0  0  0  0
    9.1249   -3.3957    0.0000 H   0  0  0  0  0  0  0  0  0  0  0  0
    8.1682   -2.4503    0.0000 H   0  0  0  0  0  0  0  0  0  0  0  0
    8.5668   -3.1406    0.0000 H   0  0  0  0  0  0  0  0  0  0  0  0
   11.0600   -2.2868    0.0000 H   0  0  0  0  0  0  0  0  0  0  0  0
   10.2484   -2.1143    0.0000 H   0  0  0  0  0  0  0  0  0  0  0  0
    8.2419   -1.8680    0.0000 H   0  0  0  0  0  0  0  0  0  0  0  0
   11.7291   -3.7588    0.0000 H   0  0  0  0  0  0  0  0  0  0  0  0
   11.6424   -2.9336    0.0000 H   0  0  0  0  0  0  0  0  0  0  0  0
   10.9797   -4.8268    0.0000 H   0  0  0  0  0  0  0  0  0  0  0  0
    7.9128   -0.4380    0.0000 H   0  0  0  0  0  0  0  0  0  0  0  0
   10.1818   -1.3680    0.0000 H   0  0  0  0  0  0  0  0  0  0  0  0
    6.7177   -0.7480    0.0000 H   0  0  0  0  0  0  0  0  0  0  0  0
    5.1027   -0.9754    0.0000 H   0  0  0  0  0  0  0  0  0  0  0  0
    4.7042   -1.6656    0.0000 H   0  0  0  0  0  0  0  0  0  0  0  0
    9.1079    0.2520    0.0000 H   0  0  0  0  0  0  0  0  0  0  0  0
   11.5890    1.3594    0.0000 H   0  0  0  0  0  0  0  0  0  0  0  0
   11.9875    2.0497    0.0000 H   0  0  0  0  0  0  0  0  0  0  0  0
    7.5837    0.1320    0.0000 H   0  0  0  0  0  0  0  0  0  0  0  0
   11.9969    3.9420    0.0000 H   0  0  0  0  0  0  0  0  0  0  0  0
   11.3769    4.5620    0.0000 H   0  0  0  0  0  0  0  0  0  0  0  0
   10.7569    3.9420    0.0000 H   0  0  0  0  0  0  0  0  0  0  0  0
   12.3769    2.3220    0.0000 H   0  0  0  0  0  0  0  0  0  0  0  0
   12.9969    2.9420    0.0000 H   0  0  0  0  0  0  0  0  0  0  0  0
   12.3769    3.5620    0.0000 H   0  0  0  0  0  0  0  0  0  0  0  0
   10.3769    3.5620    0.0000 H   0  0  0  0  0  0  0  0  0  0  0  0
    9.7569    2.9420    0.0000 H   0  0  0  0  0  0  0  0  0  0  0  0
   10.3769    2.3220    0.0000 H   0  0  0  0  0  0  0  0  0  0  0  0
    3.9118   -2.7480    0.0000 H   0  0  0  0  0  0  0  0  0  0  0  0
    6.7177   -2.7480    0.0000 H   0  0  0  0  0  0  0  0  0  0  0  0
    7.5837    1.7520    0.0000 H   0  0  0  0  0  0  0  0  0  0  0  0
    6.1808    2.5620    0.0000 H   0  0  0  0  0  0  0  0  0  0  0  0
    6.7177   -4.3680    0.0000 H   0  0  0  0  0  0  0  0  0  0  0  0
    3.9118    1.6320    0.0000 H   0  0  0  0  0  0  0  0  0  0  0  0
    3.9389    4.8514    0.0000 H   0  0  0  0  0  0  0  0  0  0  0  0
    2.6597    5.8102    0.0000 H   0  0  0  0  0  0  0  0  0  0  0  0
    1.8411    6.1244    0.0000 H   0  0  0  0  0  0  0  0  0  0  0  0
    1.5269    5.3058    0.0000 H   0  0  0  0  0  0  0  0  0  0  0  0
  1 40  1  0  0  0  0
  2 42  1  0  0  0  0
  3 20  2  0  0  0  0
  4 23  2  0  0  0  0
  5 28  1  0  0  0  0
  5 31  1  0  0  0  0
  6 29  2  0  0  0  0
  7 31  2  0  0  0  0
  8 43  2  0  0  0  0
  9 14  1  0  0  0  0
  9 46  1  0  0  0  0
 10 19  1  0  0  0  0
 10 20  1  0  0  0  0
 10 56  1  0  0  0  0
 18 11  1  6  0  0  0
 11 23  1  0  0  0  0
 11 57  1  0  0  0  0
 12 22  1  0  0  0  0
 12 29  1  0  0  0  0
 12 30  1  0  0  0  0
 13 35  1  0  0  0  0
 13 43  1  0  0  0  0
 13 80  1  0  0  0  0
 14 44  2  0  0  0  0
 15 16  1  6  0  0  0
 15 17  1  0  0  0  0
 15 20  1  0  0  0  0
 15 48  1  0  0  0  0
 16 18  1  0  0  0  0
 16 49  1  0  0  0  0
 16 50  1  0  0  0  0
 17 19  1  0  0  0  0
 17 51  1  0  0  0  0
 17 52  1  0  0  0  0
 18 21  1  0  0  0  0
 18 53  1  0  0  0  0
 19 54  1  0  0  0  0
 19 55  1  0  0  0  0
 21 25  2  0  0  0  0
 21 58  1  0  0  0  0
 22 23  1  6  0  0  0
 22 24  1  0  0  0  0
 22 59  1  0  0  0  0
 24 27  1  0  0  0  0
 24 60  1  0  0  0  0
 24 61  1  0  0  0  0
 25 31  1  0  0  0  0
 25 62  1  0  0  0  0
 26 28  1  0  0  0  0
 26 32  1  0  0  0  0
 26 33  1  0  0  0  0
 26 34  1  0  0  0  0
 27 36  2  0  0  0  0
 27 37  1  0  0  0  0
 28 63  1  0  0  0  0
 28 64  1  0  0  0  0
 29 35  1  0  0  0  0
 30 38  2  0  0  0  0
 30 65  1  0  0  0  0
 32 66  1  0  0  0  0
 32 67  1  0  0  0  0
 32 68  1  0  0  0  0
 33 69  1  0  0  0  0
 33 70  1  0  0  0  0
 33 71  1  0  0  0  0
 34 72  1  0  0  0  0
 34 73  1  0  0  0  0
 34 74  1  0  0  0  0
 35 39  2  0  0  0  0
 36 40  1  0  0  0  0
 36 75  1  0  0  0  0
 37 41  2  0  0  0  0
 37 76  1  0  0  0  0
 38 39  1  0  0  0  0
 38 77  1  0  0  0  0
 39 78  1  0  0  0  0
 40 42  2  0  0  0  0
 41 42  1  0  0  0  0
 41 79  1  0  0  0  0
 43 44  1  0  0  0  0
 44 45  1  0  0  0  0
 45 46  2  0  0  0  0
 45 81  1  0  0  0  0
 46 47  1  0  0  0  0
 47 82  1  0  0  0  0
 47 83  1  0  0  0  0
 47 84  1  0  0  0  0
M  END
> <PUBCHEM_COMPOUND_CID>
10122355

> <PUBCHEM_COMPOUND_CANONICALIZED>
1

> <PUBCHEM_CACTVS_COMPLEXITY>
1280

> <PUBCHEM_CACTVS_HBOND_ACCEPTOR>
10

> <PUBCHEM_CACTVS_HBOND_DONOR>
3

> <PUBCHEM_CACTVS_ROTATABLE_BOND>
14

> <PUBCHEM_CACTVS_SUBSKEYS>
AAADcfB/uYAAAAAAAAAAAAAAAAAAAWLAAAAwQAAAAAAAAAABwAAAHwAUAAAADyzhng4yjJPQBACpA6X2WgCCAAAmIgAomKG+bNoIZjqAtbOWMYhmlhiI6cc/iICOAAAAAAAAAAAAAAAAAAAAAAAAAAAAAA==

> <PUBCHEM_IUPAC_OPENEYE_NAME>
2,2-dimethylpropyl (E,4S)-4-[[(2S)-3-(3,4-difluorophenyl)-2-[3-[(5-methylisoxazole-3-carbonyl)amino]-2-oxo-1-pyridyl]propanoyl]amino]-5-[(3S)-2-oxopyrrolidin-3-yl]pent-2-enoate

> <PUBCHEM_IUPAC_CAS_NAME>
(E,4S)-4-[[(2S)-3-(3,4-difluorophenyl)-2-[3-[[(5-methyl-3-isoxazolyl)-oxomethyl]amino]-2-oxo-1-pyridinyl]-1-oxopropyl]amino]-5-[(3S)-2-oxo-3-pyrrolidinyl]-2-pentenoic acid 2,2-dimethylpropyl ester

> <PUBCHEM_IUPAC_NAME_MARKUP>
2,2-dimethylpropyl (<I>E</I>,4<I>S</I>)-4-[[(2<I>S</I>)-3-(3,4-difluorophenyl)-2-[3-[(5-methyl-1,2-oxazole-3-carbonyl)amino]-2-oxopyridin-1-yl]propanoyl]amino]-5-[(3<I>S</I>)-2-oxopyrrolidin-3-yl]pent-2-enoate

> <PUBCHEM_IUPAC_NAME>
2,2-dimethylpropyl (E,4S)-4-[[(2S)-3-(3,4-difluorophenyl)-2-[3-[(5-methyl-1,2-oxazole-3-carbonyl)amino]-2-oxopyridin-1-yl]propanoyl]amino]-5-[(3S)-2-oxopyrrolidin-3-yl]pent-2-enoate

> <PUBCHEM_IUPAC_SYSTEMATIC_NAME>
2,2-dimethylpropyl (E,4S)-4-[[(2S)-3-[3,4-bis(fluoranyl)phenyl]-2-[3-[(5-methyl-1,2-oxazol-3-yl)carbonylamino]-2-oxidanylidene-pyridin-1-yl]propanoyl]amino]-5-[(3S)-2-oxidanylidenepyrrolidin-3-yl]pent-2-enoate

> <PUBCHEM_IUPAC_TRADITIONAL_NAME>
(E,4S)-4-[[(2S)-3-(3,4-difluorophenyl)-2-[2-keto-3-[(5-methylisoxazole-3-carbonyl)amino]-1-pyridyl]propanoyl]amino]-5-[(3S)-2-ketopyrrolidin-3-yl]pent-2-enoic acid neopentyl ester

> <PUBCHEM_IUPAC_INCHI>
InChI=1S/C33H37F2N5O7/c1-19-14-26(39-47-19)30(43)38-25-6-5-13-40(32(25)45)27(16-20-7-9-23(34)24(35)15-20)31(44)37-22(17-21-11-12-36-29(21)42)8-10-28(41)46-18-33(2,3)4/h5-10,13-15,21-22,27H,11-12,16-18H2,1-4H3,(H,36,42)(H,37,44)(H,38,43)/b10-8+/t21-,22+,27-/m0/s1

> <PUBCHEM_IUPAC_INCHIKEY>
XXEGWAYKGXEKKV-ATQXNFRPSA-N

> <PUBCHEM_XLOGP3_AA>
3.8

> <PUBCHEM_EXACT_MASS>
653.266105

> <PUBCHEM_MOLECULAR_FORMULA>
C33H37F2N5O7

> <PUBCHEM_MOLECULAR_WEIGHT>
653.7

> <PUBCHEM_OPENEYE_CAN_SMILES>
CC1=CC(=NO1)C(=O)NC2=CC=CN(C2=O)C(CC3=CC(=C(C=C3)F)F)C(=O)NC(CC4CCNC4=O)C=CC(=O)OCC(C)(C)C

> <PUBCHEM_OPENEYE_ISO_SMILES>
CC1=CC(=NO1)C(=O)NC2=CC=CN(C2=O)[C@@H](CC3=CC(=C(C=C3)F)F)C(=O)N[C@@H](C[C@@H]4CCNC4=O)/C=C/C(=O)OCC(C)(C)C

> <PUBCHEM_CACTVS_TPSA>
160

> <PUBCHEM_MONOISOTOPIC_WEIGHT>
653.266105

> <PUBCHEM_TOTAL_CHARGE>
0

> <PUBCHEM_HEAVY_ATOM_COUNT>
47

> <PUBCHEM_ATOM_DEF_STEREO_COUNT>
3

> <PUBCHEM_ATOM_UDEF_STEREO_COUNT>
0

> <PUBCHEM_BOND_DEF_STEREO_COUNT>
1

> <PUBCHEM_BOND_UDEF_STEREO_COUNT>
0

> <PUBCHEM_ISOTOPIC_ATOM_COUNT>
0

> <PUBCHEM_COMPONENT_COUNT>
1

> <PUBCHEM_CACTVS_TAUTO_COUNT>
-1

> <PUBCHEM_COORDINATE_TYPE>
1
5
255

> <PUBCHEM_BONDANNOTATIONS>
18  11  6
12  29  8
12  30  8
14  44  8
15  16  6
22  23  6
27  36  8
27  37  8
29  35  8
30  38  8
35  39  8
36  40  8
37  41  8
38  39  8
40  42  8
41  42  8
44  45  8
45  46  8
9  14  8
9  46  8

$$$$
10145170
  -OEChem-02212016592D

 73 77  0     1  0  0  0  0  0999 V2000
    5.3147   -5.5580    0.0000 F   0  0  0  0  0  0  0  0  0  0  0  0
   10.7663   -1.6731    0.0000 O   0  0  0  0  0  0  0  0  0  0  0  0
   10.1449    1.4808    0.0000 O   0  0  0  0  0  0  0  0  0  0  0  0
    7.0468   -2.5580    0.0000 O   0  0  0  0  0  0  0  0  0  0  0  0
   11.4049    0.2208    0.0000 O   0  0  0  0  0  0  0  0  0  0  0  0
    4.4487   -0.0580    0.0000 O   0  0  0  0  0  0  0  0  0  0  0  0
    5.3147    3.4420    0.0000 O   0  0  0  0  0  0  0  0  0  0  0  0
    2.0000    3.7784    0.0000 O   0  0  0  0  0  0  0  0  0  0  0  0
   11.2275   -3.3944    0.0000 N   0  0  0  0  0  0  0  0  0  0  0  0
    7.9128   -1.0580    0.0000 N   0  0  0  0  0  0  0  0  0  0  0  0
    6.1808   -0.0580    0.0000 N   0  0  0  0  0  0  0  0  0  0  0  0
    4.4487    1.9420    0.0000 N   0  0  0  0  0  0  0  0  0  0  0  0
    2.6691    3.0353    0.0000 N   0  0  0  0  0  0  0  0  0  0  0  0
    9.6448   -3.0580    0.0000 C   0  0  3  0  0  0  0  0  0  0  0  0
    8.7788   -2.5580    0.0000 C   0  0  0  0  0  0  0  0  0  0  0  0
    9.7494   -4.0525    0.0000 C   0  0  0  0  0  0  0  0  0  0  0  0
    8.7788   -1.5580    0.0000 C   0  0  1  0  0  0  0  0  0  0  0  0
   10.7275   -4.2604    0.0000 C   0  0  0  0  0  0  0  0  0  0  0  0
   10.5584   -2.6512    0.0000 C   0  0  0  0  0  0  0  0  0  0  0  0
    9.6448   -1.0580    0.0000 C   0  0  0  0  0  0  0  0  0  0  0  0
    6.1808   -1.0580    0.0000 C   0  0  2  0  0  0  0  0  0  0  0  0
    7.0468   -1.5580    0.0000 C   0  0  0  0  0  0  0  0  0  0  0  0
    9.6448   -0.0580    0.0000 C   0  0  0  0  0  0  0  0  0  0  0  0
    5.3147   -1.5580    0.0000 C   0  0  0  0  0  0  0  0  0  0  0  0
    8.8358    0.5298    0.0000 C   0  0  0  0  0  0  0  0  0  0  0  0
    9.1448    1.4808    0.0000 C   0  0  0  0  0  0  0  0  0  0  0  0
   10.4539    0.5298    0.0000 C   0  0  0  0  0  0  0  0  0  0  0  0
    5.3147   -2.5580    0.0000 C   0  0  0  0  0  0  0  0  0  0  0  0
    5.3147    0.4420    0.0000 C   0  0  0  0  0  0  0  0  0  0  0  0
    7.0468    0.4420    0.0000 C   0  0  0  0  0  0  0  0  0  0  0  0
    5.3147    1.4420    0.0000 C   0  0  0  0  0  0  0  0  0  0  0  0
    6.1808   -3.0580    0.0000 C   0  0  0  0  0  0  0  0  0  0  0  0
    4.4487   -3.0580    0.0000 C   0  0  0  0  0  0  0  0  0  0  0  0
    7.0468    1.4420    0.0000 C   0  0  0  0  0  0  0  0  0  0  0  0
    6.1808    1.9420    0.0000 C   0  0  0  0  0  0  0  0  0  0  0  0
    6.1808   -4.0580    0.0000 C   0  0  0  0  0  0  0  0  0  0  0  0
    4.4487   -4.0580    0.0000 C   0  0  0  0  0  0  0  0  0  0  0  0
    5.3147   -4.5580    0.0000 C   0  0  0  0  0  0  0  0  0  0  0  0
    4.4487    2.9420    0.0000 C   0  0  0  0  0  0  0  0  0  0  0  0
    3.5827    3.4420    0.0000 C   0  0  0  0  0  0  0  0  0  0  0  0
    3.4782    4.4365    0.0000 C   0  0  0  0  0  0  0  0  0  0  0  0
    2.5000    4.6444    0.0000 C   0  0  0  0  0  0  0  0  0  0  0  0
    2.0933    5.5580    0.0000 C   0  0  0  0  0  0  0  0  0  0  0  0
    9.1249   -3.3957    0.0000 H   0  0  0  0  0  0  0  0  0  0  0  0
    8.1682   -2.4503    0.0000 H   0  0  0  0  0  0  0  0  0  0  0  0
    8.5668   -3.1406    0.0000 H   0  0  0  0  0  0  0  0  0  0  0  0
    9.1294   -4.0525    0.0000 H   0  0  0  0  0  0  0  0  0  0  0  0
    9.6846   -4.6691    0.0000 H   0  0  0  0  0  0  0  0  0  0  0  0
    8.2419   -1.8680    0.0000 H   0  0  0  0  0  0  0  0  0  0  0  0
   10.5359   -4.8501    0.0000 H   0  0  0  0  0  0  0  0  0  0  0  0
   11.2939   -4.5126    0.0000 H   0  0  0  0  0  0  0  0  0  0  0  0
   11.8441   -3.3296    0.0000 H   0  0  0  0  0  0  0  0  0  0  0  0
    7.9128   -0.4380    0.0000 H   0  0  0  0  0  0  0  0  0  0  0  0
   10.1818   -1.3680    0.0000 H   0  0  0  0  0  0  0  0  0  0  0  0
    6.7177   -0.7480    0.0000 H   0  0  0  0  0  0  0  0  0  0  0  0
    5.1027   -0.9754    0.0000 H   0  0  0  0  0  0  0  0  0  0  0  0
    4.7042   -1.6656    0.0000 H   0  0  0  0  0  0  0  0  0  0  0  0
    8.2694    0.7820    0.0000 H   0  0  0  0  0  0  0  0  0  0  0  0
    8.5258   -0.0071    0.0000 H   0  0  0  0  0  0  0  0  0  0  0  0
    9.2097    2.0975    0.0000 H   0  0  0  0  0  0  0  0  0  0  0  0
    8.5384    1.6098    0.0000 H   0  0  0  0  0  0  0  0  0  0  0  0
    7.5837    0.1320    0.0000 H   0  0  0  0  0  0  0  0  0  0  0  0
    6.7177   -2.7480    0.0000 H   0  0  0  0  0  0  0  0  0  0  0  0
    3.9118   -2.7480    0.0000 H   0  0  0  0  0  0  0  0  0  0  0  0
    7.5837    1.7520    0.0000 H   0  0  0  0  0  0  0  0  0  0  0  0
    6.1808    2.5620    0.0000 H   0  0  0  0  0  0  0  0  0  0  0  0
    6.7177   -4.3680    0.0000 H   0  0  0  0  0  0  0  0  0  0  0  0
    3.9118   -4.3680    0.0000 H   0  0  0  0  0  0  0  0  0  0  0  0
    3.9118    1.6320    0.0000 H   0  0  0  0  0  0  0  0  0  0  0  0
    3.9389    4.8514    0.0000 H   0  0  0  0  0  0  0  0  0  0  0  0
    2.6597    5.8102    0.0000 H   0  0  0  0  0  0  0  0  0  0  0  0
    1.8411    6.1244    0.0000 H   0  0  0  0  0  0  0  0  0  0  0  0
    1.5269    5.3058    0.0000 H   0  0  0  0  0  0  0  0  0  0  0  0
  1 38  1  0  0  0  0
  2 19  2  0  0  0  0
  3 26  1  0  0  0  0
  3 27  1  0  0  0  0
  4 22  2  0  0  0  0
  5 27  2  0  0  0  0
  6 29  2  0  0  0  0
  7 39  2  0  0  0  0
  8 13  1  0  0  0  0
  8 42  1  0  0  0  0
  9 18  1  0  0  0  0
  9 19  1  0  0  0  0
  9 52  1  0  0  0  0
 17 10  1  6  0  0  0
 10 22  1  0  0  0  0
 10 53  1  0  0  0  0
 11 21  1  0  0  0  0
 11 29  1  0  0  0  0
 11 30  1  0  0  0  0
 12 31  1  0  0  0  0
 12 39  1  0  0  0  0
 12 69  1  0  0  0  0
 13 40  2  0  0  0  0
 14 15  1  0  0  0  0
 14 16  1  0  0  0  0
 14 19  1  0  0  0  0
 14 44  1  0  0  0  0
 15 17  1  0  0  0  0
 15 45  1  0  0  0  0
 15 46  1  0  0  0  0
 16 18  1  0  0  0  0
 16 47  1  0  0  0  0
 16 48  1  0  0  0  0
 17 20  1  0  0  0  0
 17 49  1  0  0  0  0
 18 50  1  0  0  0  0
 18 51  1  0  0  0  0
 20 23  2  0  0  0  0
 20 54  1  0  0  0  0
 21 22  1  6  0  0  0
 21 24  1  0  0  0  0
 21 55  1  0  0  0  0
 23 25  1  0  0  0  0
 23 27  1  0  0  0  0
 24 28  1  0  0  0  0
 24 56  1  0  0  0  0
 24 57  1  0  0  0  0
 25 26  1  0  0  0  0
 25 58  1  0  0  0  0
 25 59  1  0  0  0  0
 26 60  1  0  0  0  0
 26 61  1  0  0  0  0
 28 32  2  0  0  0  0
 28 33  1  0  0  0  0
 29 31  1  0  0  0  0
 30 34  2  0  0  0  0
 30 62  1  0  0  0  0
 31 35  2  0  0  0  0
 32 36  1  0  0  0  0
 32 63  1  0  0  0  0
 33 37  2  0  0  0  0
 33 64  1  0  0  0  0
 34 35  1  0  0  0  0
 34 65  1  0  0  0  0
 35 66  1  0  0  0  0
 36 38  2  0  0  0  0
 36 67  1  0  0  0  0
 37 38  1  0  0  0  0
 37 68  1  0  0  0  0
 39 40  1  0  0  0  0
 40 41  1  0  0  0  0
 41 42  2  0  0  0  0
 41 70  1  0  0  0  0
 42 43  1  0  0  0  0
 43 71  1  0  0  0  0
 43 72  1  0  0  0  0
 43 73  1  0  0  0  0
M  END
> <PUBCHEM_COMPOUND_CID>
10145170

> <PUBCHEM_COMPOUND_CANONICALIZED>
1

> <PUBCHEM_CACTVS_COMPLEXITY>
1210

> <PUBCHEM_CACTVS_HBOND_ACCEPTOR>
9

> <PUBCHEM_CACTVS_HBOND_DONOR>
3

> <PUBCHEM_CACTVS_ROTATABLE_BOND>
10

> <PUBCHEM_CACTVS_SUBSKEYS>
AAADceB7uQAAAAAAAAAAAAAAAAAAAWLEgAAwQAAAAAAAAAABwAAAHwAUAAAADSzhng4yjJPQBACpA6X2WgCCAAAmIgAomKG+bNoIZjqAtbOWMYhm1hiI6cc/iICOAAAAAAAAAAAAAAAAAAAAAAAAAAAAAA==

> <PUBCHEM_IUPAC_OPENEYE_NAME>
N-[1-[(1S)-1-[(4-fluorophenyl)methyl]-2-oxo-2-[[(1S,2E)-1-[(2-oxopyrrolidin-3-yl)methyl]-2-(2-oxotetrahydrofuran-3-ylidene)ethyl]amino]ethyl]-2-oxo-3-pyridyl]-5-methyl-isoxazole-3-carboxamide

> <PUBCHEM_IUPAC_CAS_NAME>
N-[1-[(2S)-3-(4-fluorophenyl)-1-oxo-1-[[(1E,2S)-1-(2-oxo-3-oxolanylidene)-3-(2-oxo-3-pyrrolidinyl)propan-2-yl]amino]propan-2-yl]-2-oxo-3-pyridinyl]-5-methyl-3-isoxazolecarboxamide

> <PUBCHEM_IUPAC_NAME_MARKUP>
<I>N</I>-[1-[(2<I>S</I>)-3-(4-fluorophenyl)-1-oxo-1-[[(1<I>E</I>,2<I>S</I>)-1-(2-oxooxolan-3-ylidene)-3-(2-oxopyrrolidin-3-yl)propan-2-yl]amino]propan-2-yl]-2-oxopyridin-3-yl]-5-methyl-1,2-oxazole-3-carboxamide

> <PUBCHEM_IUPAC_NAME>
N-[1-[(2S)-3-(4-fluorophenyl)-1-oxo-1-[[(1E,2S)-1-(2-oxooxolan-3-ylidene)-3-(2-oxopyrrolidin-3-yl)propan-2-yl]amino]propan-2-yl]-2-oxopyridin-3-yl]-5-methyl-1,2-oxazole-3-carboxamide

> <PUBCHEM_IUPAC_SYSTEMATIC_NAME>
N-[1-[(2S)-3-(4-fluorophenyl)-1-oxidanylidene-1-[[(1E,2S)-1-(2-oxidanylideneoxolan-3-ylidene)-3-(2-oxidanylidenepyrrolidin-3-yl)propan-2-yl]amino]propan-2-yl]-2-oxidanylidene-pyridin-3-yl]-5-methyl-1,2-oxazole-3-carboxamide

> <PUBCHEM_IUPAC_TRADITIONAL_NAME>
N-[1-[(1S)-1-(4-fluorobenzyl)-2-keto-2-[[(1S,2E)-1-[(2-ketopyrrolidin-3-yl)methyl]-2-(2-ketotetrahydrofuran-3-ylidene)ethyl]amino]ethyl]-2-keto-3-pyridyl]-5-methyl-isoxazole-3-carboxamide

> <PUBCHEM_IUPAC_INCHI>
InChI=1S/C30H30FN5O7/c1-17-13-24(35-43-17)27(38)34-23-3-2-11-36(29(23)40)25(14-18-4-6-21(31)7-5-18)28(39)33-22(15-19-8-10-32-26(19)37)16-20-9-12-42-30(20)41/h2-7,11,13,16,19,22,25H,8-10,12,14-15H2,1H3,(H,32,37)(H,33,39)(H,34,38)/b20-16+/t19?,22-,25-/m0/s1

> <PUBCHEM_IUPAC_INCHIKEY>
SYRRIXCEQDEKDO-MWNNUDDKSA-N

> <PUBCHEM_XLOGP3_AA>
2

> <PUBCHEM_EXACT_MASS>
591.212926

> <PUBCHEM_MOLECULAR_FORMULA>
C30H30FN5O7

> <PUBCHEM_MOLECULAR_WEIGHT>
591.6

> <PUBCHEM_OPENEYE_CAN_SMILES>
CC1=CC(=NO1)C(=O)NC2=CC=CN(C2=O)C(CC3=CC=C(C=C3)F)C(=O)NC(CC4CCNC4=O)C=C5CCOC5=O

> <PUBCHEM_OPENEYE_ISO_SMILES>
CC1=CC(=NO1)C(=O)NC2=CC=CN(C2=O)[C@@H](CC3=CC=C(C=C3)F)C(=O)N[C@@H](CC4CCNC4=O)/C=C/5\CCOC5=O

> <PUBCHEM_CACTVS_TPSA>
160

> <PUBCHEM_MONOISOTOPIC_WEIGHT>
591.212926

> <PUBCHEM_TOTAL_CHARGE>
0

> <PUBCHEM_HEAVY_ATOM_COUNT>
43

> <PUBCHEM_ATOM_DEF_STEREO_COUNT>
2

> <PUBCHEM_ATOM_UDEF_STEREO_COUNT>
1

> <PUBCHEM_BOND_DEF_STEREO_COUNT>
1

> <PUBCHEM_BOND_UDEF_STEREO_COUNT>
0

> <PUBCHEM_ISOTOPIC_ATOM_COUNT>
0

> <PUBCHEM_COMPONENT_COUNT>
1

> <PUBCHEM_CACTVS_TAUTO_COUNT>
-1

> <PUBCHEM_COORDINATE_TYPE>
1
5
255

> <PUBCHEM_BONDANNOTATIONS>
17  10  6
11  29  8
11  30  8
13  40  8
14  15  3
21  22  6
28  32  8
28  33  8
29  31  8
30  34  8
31  35  8
32  36  8
33  37  8
34  35  8
36  38  8
37  38  8
40  41  8
41  42  8
8  13  8
8  42  8

$$$$
10146320
  -OEChem-02212016592D

 81 84  0     1  0  0  0  0  0999 V2000
    7.4128    2.3080    0.0000 F   0  0  0  0  0  0  0  0  0  0  0  0
    8.7788    1.9420    0.0000 F   0  0  0  0  0  0  0  0  0  0  0  0
    8.4128    0.5760    0.0000 F   0  0  0  0  0  0  0  0  0  0  0  0
   10.7663   -2.1731    0.0000 O   0  0  0  0  0  0  0  0  0  0  0  0
    7.0468   -3.0580    0.0000 O   0  0  0  0  0  0  0  0  0  0  0  0
    4.4487   -0.5580    0.0000 O   0  0  0  0  0  0  0  0  0  0  0  0
   10.5109    0.9420    0.0000 O   0  0  0  0  0  0  0  0  0  0  0  0
   11.3769   -0.5580    0.0000 O   0  0  0  0  0  0  0  0  0  0  0  0
    5.3147    2.9420    0.0000 O   0  0  0  0  0  0  0  0  0  0  0  0
    2.0000    3.2784    0.0000 O   0  0  0  0  0  0  0  0  0  0  0  0
   11.2275   -3.8944    0.0000 N   0  0  0  0  0  0  0  0  0  0  0  0
    7.9128   -1.5580    0.0000 N   0  0  0  0  0  0  0  0  0  0  0  0
    6.1808   -0.5580    0.0000 N   0  0  0  0  0  0  0  0  0  0  0  0
    4.4487    1.4420    0.0000 N   0  0  0  0  0  0  0  0  0  0  0  0
    2.6691    2.5353    0.0000 N   0  0  0  0  0  0  0  0  0  0  0  0
    9.6448   -3.5580    0.0000 C   0  0  2  0  0  0  0  0  0  0  0  0
    8.7788   -3.0580    0.0000 C   0  0  0  0  0  0  0  0  0  0  0  0
    9.7494   -4.5525    0.0000 C   0  0  0  0  0  0  0  0  0  0  0  0
    8.7788   -2.0580    0.0000 C   0  0  1  0  0  0  0  0  0  0  0  0
   10.7275   -4.7604    0.0000 C   0  0  0  0  0  0  0  0  0  0  0  0
   10.5584   -3.1512    0.0000 C   0  0  0  0  0  0  0  0  0  0  0  0
    6.1808   -1.5580    0.0000 C   0  0  2  0  0  0  0  0  0  0  0  0
    9.6448   -1.5580    0.0000 C   0  0  0  0  0  0  0  0  0  0  0  0
    7.0468   -2.0580    0.0000 C   0  0  0  0  0  0  0  0  0  0  0  0
    5.3147   -2.0580    0.0000 C   0  0  0  0  0  0  0  0  0  0  0  0
    9.6448   -0.5580    0.0000 C   0  0  0  0  0  0  0  0  0  0  0  0
    5.3147   -3.0580    0.0000 C   0  0  0  0  0  0  0  0  0  0  0  0
    7.0468   -0.0580    0.0000 C   0  0  0  0  0  0  0  0  0  0  0  0
    5.3147   -0.0580    0.0000 C   0  0  0  0  0  0  0  0  0  0  0  0
    7.0468    0.9420    0.0000 C   0  0  0  0  0  0  0  0  0  0  0  0
    5.3147    0.9420    0.0000 C   0  0  0  0  0  0  0  0  0  0  0  0
    6.1808    1.4420    0.0000 C   0  0  0  0  0  0  0  0  0  0  0  0
    4.4487   -3.5580    0.0000 C   0  0  0  0  0  0  0  0  0  0  0  0
    6.1808   -3.5580    0.0000 C   0  0  0  0  0  0  0  0  0  0  0  0
   10.5109   -0.0580    0.0000 C   0  0  0  0  0  0  0  0  0  0  0  0
    7.9128    1.4420    0.0000 C   0  0  0  0  0  0  0  0  0  0  0  0
    4.4487   -4.5580    0.0000 C   0  0  0  0  0  0  0  0  0  0  0  0
    6.1808   -4.5580    0.0000 C   0  0  0  0  0  0  0  0  0  0  0  0
    5.3147   -5.0580    0.0000 C   0  0  0  0  0  0  0  0  0  0  0  0
   11.3769    1.4420    0.0000 C   0  0  0  0  0  0  0  0  0  0  0  0
    4.4487    2.4420    0.0000 C   0  0  0  0  0  0  0  0  0  0  0  0
   11.3769    2.4420    0.0000 C   0  0  0  0  0  0  0  0  0  0  0  0
   12.2429    0.9420    0.0000 C   0  0  0  0  0  0  0  0  0  0  0  0
    3.5827    2.9420    0.0000 C   0  0  0  0  0  0  0  0  0  0  0  0
    3.4782    3.9365    0.0000 C   0  0  0  0  0  0  0  0  0  0  0  0
    2.5000    4.1444    0.0000 C   0  0  0  0  0  0  0  0  0  0  0  0
    2.0933    5.0580    0.0000 C   0  0  0  0  0  0  0  0  0  0  0  0
    9.1249   -3.8957    0.0000 H   0  0  0  0  0  0  0  0  0  0  0  0
    8.1682   -2.9503    0.0000 H   0  0  0  0  0  0  0  0  0  0  0  0
    8.5668   -3.6406    0.0000 H   0  0  0  0  0  0  0  0  0  0  0  0
    9.1294   -4.5525    0.0000 H   0  0  0  0  0  0  0  0  0  0  0  0
    9.6846   -5.1691    0.0000 H   0  0  0  0  0  0  0  0  0  0  0  0
    8.2419   -2.3680    0.0000 H   0  0  0  0  0  0  0  0  0  0  0  0
   10.5359   -5.3501    0.0000 H   0  0  0  0  0  0  0  0  0  0  0  0
   11.2939   -5.0126    0.0000 H   0  0  0  0  0  0  0  0  0  0  0  0
   11.8441   -3.8296    0.0000 H   0  0  0  0  0  0  0  0  0  0  0  0
    7.9128   -0.9380    0.0000 H   0  0  0  0  0  0  0  0  0  0  0  0
    6.7177   -1.2480    0.0000 H   0  0  0  0  0  0  0  0  0  0  0  0
   10.1818   -1.8680    0.0000 H   0  0  0  0  0  0  0  0  0  0  0  0
    5.1027   -1.4754    0.0000 H   0  0  0  0  0  0  0  0  0  0  0  0
    4.7042   -2.1656    0.0000 H   0  0  0  0  0  0  0  0  0  0  0  0
    9.1079   -0.2480    0.0000 H   0  0  0  0  0  0  0  0  0  0  0  0
    7.5837   -0.3680    0.0000 H   0  0  0  0  0  0  0  0  0  0  0  0
    6.1808    2.0620    0.0000 H   0  0  0  0  0  0  0  0  0  0  0  0
    3.9118   -3.2480    0.0000 H   0  0  0  0  0  0  0  0  0  0  0  0
    6.7177   -3.2480    0.0000 H   0  0  0  0  0  0  0  0  0  0  0  0
    3.9118    1.1320    0.0000 H   0  0  0  0  0  0  0  0  0  0  0  0
    3.9118   -4.8680    0.0000 H   0  0  0  0  0  0  0  0  0  0  0  0
    6.7177   -4.8680    0.0000 H   0  0  0  0  0  0  0  0  0  0  0  0
    5.3147   -5.6780    0.0000 H   0  0  0  0  0  0  0  0  0  0  0  0
   10.8400    1.7520    0.0000 H   0  0  0  0  0  0  0  0  0  0  0  0
   11.9969    2.4420    0.0000 H   0  0  0  0  0  0  0  0  0  0  0  0
   11.3769    3.0620    0.0000 H   0  0  0  0  0  0  0  0  0  0  0  0
   10.7569    2.4420    0.0000 H   0  0  0  0  0  0  0  0  0  0  0  0
   11.9329    0.4051    0.0000 H   0  0  0  0  0  0  0  0  0  0  0  0
   12.7799    0.6320    0.0000 H   0  0  0  0  0  0  0  0  0  0  0  0
   12.5529    1.4790    0.0000 H   0  0  0  0  0  0  0  0  0  0  0  0
    3.9389    4.3514    0.0000 H   0  0  0  0  0  0  0  0  0  0  0  0
    2.6597    5.3102    0.0000 H   0  0  0  0  0  0  0  0  0  0  0  0
    1.8411    5.6244    0.0000 H   0  0  0  0  0  0  0  0  0  0  0  0
    1.5269    4.8058    0.0000 H   0  0  0  0  0  0  0  0  0  0  0  0
  1 36  1  0  0  0  0
  2 36  1  0  0  0  0
  3 36  1  0  0  0  0
  4 21  2  0  0  0  0
  5 24  2  0  0  0  0
  6 29  2  0  0  0  0
  7 35  1  0  0  0  0
  7 40  1  0  0  0  0
  8 35  2  0  0  0  0
  9 41  2  0  0  0  0
 10 15  1  0  0  0  0
 10 46  1  0  0  0  0
 11 20  1  0  0  0  0
 11 21  1  0  0  0  0
 11 56  1  0  0  0  0
 19 12  1  6  0  0  0
 12 24  1  0  0  0  0
 12 57  1  0  0  0  0
 13 22  1  0  0  0  0
 13 28  1  0  0  0  0
 13 29  1  0  0  0  0
 14 31  1  0  0  0  0
 14 41  1  0  0  0  0
 14 67  1  0  0  0  0
 15 44  2  0  0  0  0
 16 17  1  1  0  0  0
 16 18  1  0  0  0  0
 16 21  1  0  0  0  0
 16 48  1  0  0  0  0
 17 19  1  0  0  0  0
 17 49  1  0  0  0  0
 17 50  1  0  0  0  0
 18 20  1  0  0  0  0
 18 51  1  0  0  0  0
 18 52  1  0  0  0  0
 19 23  1  0  0  0  0
 19 53  1  0  0  0  0
 20 54  1  0  0  0  0
 20 55  1  0  0  0  0
 22 24  1  6  0  0  0
 22 25  1  0  0  0  0
 22 58  1  0  0  0  0
 23 26  2  0  0  0  0
 23 59  1  0  0  0  0
 25 27  1  0  0  0  0
 25 60  1  0  0  0  0
 25 61  1  0  0  0  0
 26 35  1  0  0  0  0
 26 62  1  0  0  0  0
 27 33  2  0  0  0  0
 27 34  1  0  0  0  0
 28 30  2  0  0  0  0
 28 63  1  0  0  0  0
 29 31  1  0  0  0  0
 30 32  1  0  0  0  0
 30 36  1  0  0  0  0
 31 32  2  0  0  0  0
 32 64  1  0  0  0  0
 33 37  1  0  0  0  0
 33 65  1  0  0  0  0
 34 38  2  0  0  0  0
 34 66  1  0  0  0  0
 37 39  2  0  0  0  0
 37 68  1  0  0  0  0
 38 39  1  0  0  0  0
 38 69  1  0  0  0  0
 39 70  1  0  0  0  0
 40 42  1  0  0  0  0
 40 43  1  0  0  0  0
 40 71  1  0  0  0  0
 41 44  1  0  0  0  0
 42 72  1  0  0  0  0
 42 73  1  0  0  0  0
 42 74  1  0  0  0  0
 43 75  1  0  0  0  0
 43 76  1  0  0  0  0
 43 77  1  0  0  0  0
 44 45  1  0  0  0  0
 45 46  2  0  0  0  0
 45 78  1  0  0  0  0
 46 47  1  0  0  0  0
 47 79  1  0  0  0  0
 47 80  1  0  0  0  0
 47 81  1  0  0  0  0
M  END
> <PUBCHEM_COMPOUND_CID>
10146320

> <PUBCHEM_COMPOUND_CANONICALIZED>
1

> <PUBCHEM_CACTVS_COMPLEXITY>
1290

> <PUBCHEM_CACTVS_HBOND_ACCEPTOR>
11

> <PUBCHEM_CACTVS_HBOND_DONOR>
3

> <PUBCHEM_CACTVS_ROTATABLE_BOND>
13

> <PUBCHEM_CACTVS_SUBSKEYS>
AAADcfB/uYAAAAAAAAAAAAAAAAAAAWLAAAAwQAAAAAAAAAABwAAAHwAUAAAADTzhnhYyjJPQBACpA6X2WgCCAAAmIgAomKG+bNoIZjqAtbOWMYhmlhiI6cc/iICOAAAAAAAAAAAAAAAAAAAAAAAAAAAAAA==

> <PUBCHEM_IUPAC_OPENEYE_NAME>
isopropyl (E,4S)-4-[[(2S)-2-[3-[(5-methylisoxazole-3-carbonyl)amino]-2-oxo-5-(trifluoromethyl)-1-pyridyl]-3-phenyl-propanoyl]amino]-5-[(3S)-2-oxopyrrolidin-3-yl]pent-2-enoate

> <PUBCHEM_IUPAC_CAS_NAME>
(E,4S)-4-[[(2S)-2-[3-[[(5-methyl-3-isoxazolyl)-oxomethyl]amino]-2-oxo-5-(trifluoromethyl)-1-pyridinyl]-1-oxo-3-phenylpropyl]amino]-5-[(3S)-2-oxo-3-pyrrolidinyl]-2-pentenoic acid propan-2-yl ester

> <PUBCHEM_IUPAC_NAME_MARKUP>
propan-2-yl (<I>E</I>,4<I>S</I>)-4-[[(2<I>S</I>)-2-[3-[(5-methyl-1,2-oxazole-3-carbonyl)amino]-2-oxo-5-(trifluoromethyl)pyridin-1-yl]-3-phenylpropanoyl]amino]-5-[(3<I>S</I>)-2-oxopyrrolidin-3-yl]pent-2-enoate

> <PUBCHEM_IUPAC_NAME>
propan-2-yl (E,4S)-4-[[(2S)-2-[3-[(5-methyl-1,2-oxazole-3-carbonyl)amino]-2-oxo-5-(trifluoromethyl)pyridin-1-yl]-3-phenylpropanoyl]amino]-5-[(3S)-2-oxopyrrolidin-3-yl]pent-2-enoate

> <PUBCHEM_IUPAC_SYSTEMATIC_NAME>
propan-2-yl (E,4S)-4-[[(2S)-2-[3-[(5-methyl-1,2-oxazol-3-yl)carbonylamino]-2-oxidanylidene-5-(trifluoromethyl)pyridin-1-yl]-3-phenyl-propanoyl]amino]-5-[(3S)-2-oxidanylidenepyrrolidin-3-yl]pent-2-enoate

> <PUBCHEM_IUPAC_TRADITIONAL_NAME>
(E,4S)-4-[[(2S)-2-[2-keto-3-[(5-methylisoxazole-3-carbonyl)amino]-5-(trifluoromethyl)-1-pyridyl]-3-phenyl-propanoyl]amino]-5-[(3S)-2-ketopyrrolidin-3-yl]pent-2-enoic acid isopropyl ester

> <PUBCHEM_IUPAC_INCHI>
InChI=1S/C32H34F3N5O7/c1-18(2)46-27(41)10-9-23(15-21-11-12-36-28(21)42)37-30(44)26(14-20-7-5-4-6-8-20)40-17-22(32(33,34)35)16-25(31(40)45)38-29(43)24-13-19(3)47-39-24/h4-10,13,16-18,21,23,26H,11-12,14-15H2,1-3H3,(H,36,42)(H,37,44)(H,38,43)/b10-9+/t21-,23+,26-/m0/s1

> <PUBCHEM_IUPAC_INCHIKEY>
KSHOPSNBZKUQJY-ZUBAIHIGSA-N

> <PUBCHEM_XLOGP3_AA>
3.1

> <PUBCHEM_EXACT_MASS>
657.241033

> <PUBCHEM_MOLECULAR_FORMULA>
C32H34F3N5O7

> <PUBCHEM_MOLECULAR_WEIGHT>
657.6

> <PUBCHEM_OPENEYE_CAN_SMILES>
CC1=CC(=NO1)C(=O)NC2=CC(=CN(C2=O)C(CC3=CC=CC=C3)C(=O)NC(CC4CCNC4=O)C=CC(=O)OC(C)C)C(F)(F)F

> <PUBCHEM_OPENEYE_ISO_SMILES>
CC1=CC(=NO1)C(=O)NC2=CC(=CN(C2=O)[C@@H](CC3=CC=CC=C3)C(=O)N[C@@H](C[C@@H]4CCNC4=O)/C=C/C(=O)OC(C)C)C(F)(F)F

> <PUBCHEM_CACTVS_TPSA>
160

> <PUBCHEM_MONOISOTOPIC_WEIGHT>
657.241033

> <PUBCHEM_TOTAL_CHARGE>
0

> <PUBCHEM_HEAVY_ATOM_COUNT>
47

> <PUBCHEM_ATOM_DEF_STEREO_COUNT>
3

> <PUBCHEM_ATOM_UDEF_STEREO_COUNT>
0

> <PUBCHEM_BOND_DEF_STEREO_COUNT>
1

> <PUBCHEM_BOND_UDEF_STEREO_COUNT>
0

> <PUBCHEM_ISOTOPIC_ATOM_COUNT>
0

> <PUBCHEM_COMPONENT_COUNT>
1

> <PUBCHEM_CACTVS_TAUTO_COUNT>
-1

> <PUBCHEM_COORDINATE_TYPE>
1
5
255

> <PUBCHEM_BONDANNOTATIONS>
10  15  8
10  46  8
19  12  6
13  28  8
13  29  8
15  44  8
16  17  5
22  24  6
27  33  8
27  34  8
28  30  8
29  31  8
30  32  8
31  32  8
33  37  8
34  38  8
37  39  8
38  39  8
44  45  8
45  46  8

$$$$
10233159
  -OEChem-02212016592D

 78 81  0     1  0  0  0  0  0999 V2000
    7.4128    4.5580    0.0000 F   0  0  0  0  0  0  0  0  0  0  0  0
    8.7788    4.1920    0.0000 F   0  0  0  0  0  0  0  0  0  0  0  0
    8.4128    2.8260    0.0000 F   0  0  0  0  0  0  0  0  0  0  0  0
   10.7663    0.0769    0.0000 O   0  0  0  0  0  0  0  0  0  0  0  0
    7.9128    0.6920    0.0000 O   0  0  0  0  0  0  0  0  0  0  0  0
    4.4487    1.6920    0.0000 O   0  0  0  0  0  0  0  0  0  0  0  0
    6.1808   -4.3080    0.0000 O   0  0  0  0  0  0  0  0  0  0  0  0
    7.9128   -4.3080    0.0000 O   0  0  0  0  0  0  0  0  0  0  0  0
    5.3147    5.1920    0.0000 O   0  0  0  0  0  0  0  0  0  0  0  0
    2.0000    5.5284    0.0000 O   0  0  0  0  0  0  0  0  0  0  0  0
   11.2275   -1.6444    0.0000 N   0  0  0  0  0  0  0  0  0  0  0  0
    7.0468   -0.8080    0.0000 N   0  0  0  0  0  0  0  0  0  0  0  0
    6.1808    1.6920    0.0000 N   0  0  0  0  0  0  0  0  0  0  0  0
    4.4487    3.6920    0.0000 N   0  0  0  0  0  0  0  0  0  0  0  0
    2.6691    4.7853    0.0000 N   0  0  0  0  0  0  0  0  0  0  0  0
    9.6448   -1.3080    0.0000 C   0  0  2  0  0  0  0  0  0  0  0  0
    8.7788   -0.8080    0.0000 C   0  0  0  0  0  0  0  0  0  0  0  0
    9.7494   -2.3025    0.0000 C   0  0  0  0  0  0  0  0  0  0  0  0
    7.9128   -1.3080    0.0000 C   0  0  1  0  0  0  0  0  0  0  0  0
   10.7275   -2.5104    0.0000 C   0  0  0  0  0  0  0  0  0  0  0  0
   10.5584   -0.9013    0.0000 C   0  0  0  0  0  0  0  0  0  0  0  0
    6.1808    0.6920    0.0000 C   0  0  2  0  0  0  0  0  0  0  0  0
    7.9128   -2.3080    0.0000 C   0  0  0  0  0  0  0  0  0  0  0  0
    7.0468    0.1920    0.0000 C   0  0  0  0  0  0  0  0  0  0  0  0
    5.3147    0.1920    0.0000 C   0  0  0  0  0  0  0  0  0  0  0  0
    7.0468   -2.8080    0.0000 C   0  0  0  0  0  0  0  0  0  0  0  0
    7.0468    2.1920    0.0000 C   0  0  0  0  0  0  0  0  0  0  0  0
    5.3147    2.1920    0.0000 C   0  0  0  0  0  0  0  0  0  0  0  0
    5.3147   -0.8080    0.0000 C   0  0  0  0  0  0  0  0  0  0  0  0
    7.0468    3.1920    0.0000 C   0  0  0  0  0  0  0  0  0  0  0  0
    5.3147    3.1920    0.0000 C   0  0  0  0  0  0  0  0  0  0  0  0
    6.1808    3.6920    0.0000 C   0  0  0  0  0  0  0  0  0  0  0  0
    7.0468   -3.8080    0.0000 C   0  0  0  0  0  0  0  0  0  0  0  0
    7.9128    3.6920    0.0000 C   0  0  0  0  0  0  0  0  0  0  0  0
    4.4487    4.6920    0.0000 C   0  0  0  0  0  0  0  0  0  0  0  0
    6.1808   -5.3080    0.0000 C   0  0  0  0  0  0  0  0  0  0  0  0
    3.5827    5.1920    0.0000 C   0  0  0  0  0  0  0  0  0  0  0  0
    5.3147   -5.8080    0.0000 C   0  0  0  0  0  0  0  0  0  0  0  0
    3.4782    6.1865    0.0000 C   0  0  0  0  0  0  0  0  0  0  0  0
    4.4487   -5.3080    0.0000 C   0  0  0  0  0  0  0  0  0  0  0  0
    5.3147   -6.8080    0.0000 C   0  0  0  0  0  0  0  0  0  0  0  0
    2.5000    6.3944    0.0000 C   0  0  0  0  0  0  0  0  0  0  0  0
    3.5827   -5.8080    0.0000 C   0  0  0  0  0  0  0  0  0  0  0  0
    4.4487   -7.3080    0.0000 C   0  0  0  0  0  0  0  0  0  0  0  0
    2.0933    7.3080    0.0000 C   0  0  0  0  0  0  0  0  0  0  0  0
    3.5827   -6.8080    0.0000 C   0  0  0  0  0  0  0  0  0  0  0  0
    9.1249   -1.6457    0.0000 H   0  0  0  0  0  0  0  0  0  0  0  0
    9.1774   -0.3330    0.0000 H   0  0  0  0  0  0  0  0  0  0  0  0
    8.3803   -0.3330    0.0000 H   0  0  0  0  0  0  0  0  0  0  0  0
    9.1294   -2.3025    0.0000 H   0  0  0  0  0  0  0  0  0  0  0  0
    9.6846   -2.9191    0.0000 H   0  0  0  0  0  0  0  0  0  0  0  0
    7.9128   -0.6880    0.0000 H   0  0  0  0  0  0  0  0  0  0  0  0
   10.5359   -3.1001    0.0000 H   0  0  0  0  0  0  0  0  0  0  0  0
   11.2939   -2.7626    0.0000 H   0  0  0  0  0  0  0  0  0  0  0  0
   11.8441   -1.5796    0.0000 H   0  0  0  0  0  0  0  0  0  0  0  0
    6.5098   -1.1180    0.0000 H   0  0  0  0  0  0  0  0  0  0  0  0
    6.1808    0.0720    0.0000 H   0  0  0  0  0  0  0  0  0  0  0  0
    8.4497   -2.6180    0.0000 H   0  0  0  0  0  0  0  0  0  0  0  0
    5.1027    0.7746    0.0000 H   0  0  0  0  0  0  0  0  0  0  0  0
    4.7042    0.0843    0.0000 H   0  0  0  0  0  0  0  0  0  0  0  0
    6.5098   -2.4980    0.0000 H   0  0  0  0  0  0  0  0  0  0  0  0
    7.5837    1.8820    0.0000 H   0  0  0  0  0  0  0  0  0  0  0  0
    4.6947   -0.8080    0.0000 H   0  0  0  0  0  0  0  0  0  0  0  0
    5.3147   -1.4280    0.0000 H   0  0  0  0  0  0  0  0  0  0  0  0
    5.9347   -0.8080    0.0000 H   0  0  0  0  0  0  0  0  0  0  0  0
    6.1808    4.3120    0.0000 H   0  0  0  0  0  0  0  0  0  0  0  0
    3.9118    3.3820    0.0000 H   0  0  0  0  0  0  0  0  0  0  0  0
    6.3928   -5.8906    0.0000 H   0  0  0  0  0  0  0  0  0  0  0  0
    6.7913   -5.2003    0.0000 H   0  0  0  0  0  0  0  0  0  0  0  0
    3.9389    6.6014    0.0000 H   0  0  0  0  0  0  0  0  0  0  0  0
    4.4487   -4.6880    0.0000 H   0  0  0  0  0  0  0  0  0  0  0  0
    5.8517   -7.1180    0.0000 H   0  0  0  0  0  0  0  0  0  0  0  0
    3.0457   -5.4980    0.0000 H   0  0  0  0  0  0  0  0  0  0  0  0
    4.4487   -7.9280    0.0000 H   0  0  0  0  0  0  0  0  0  0  0  0
    2.6597    7.5602    0.0000 H   0  0  0  0  0  0  0  0  0  0  0  0
    1.8411    7.8744    0.0000 H   0  0  0  0  0  0  0  0  0  0  0  0
    1.5269    7.0558    0.0000 H   0  0  0  0  0  0  0  0  0  0  0  0
    3.0457   -7.1180    0.0000 H   0  0  0  0  0  0  0  0  0  0  0  0
  1 34  1  0  0  0  0
  2 34  1  0  0  0  0
  3 34  1  0  0  0  0
  4 21  2  0  0  0  0
  5 24  2  0  0  0  0
  6 28  2  0  0  0  0
  7 33  1  0  0  0  0
  7 36  1  0  0  0  0
  8 33  2  0  0  0  0
  9 35  2  0  0  0  0
 10 15  1  0  0  0  0
 10 42  1  0  0  0  0
 11 20  1  0  0  0  0
 11 21  1  0  0  0  0
 11 55  1  0  0  0  0
 19 12  1  1  0  0  0
 12 24  1  0  0  0  0
 12 56  1  0  0  0  0
 13 22  1  0  0  0  0
 13 27  1  0  0  0  0
 13 28  1  0  0  0  0
 14 31  1  0  0  0  0
 14 35  1  0  0  0  0
 14 67  1  0  0  0  0
 15 37  2  0  0  0  0
 16 17  1  1  0  0  0
 16 18  1  0  0  0  0
 16 21  1  0  0  0  0
 16 47  1  0  0  0  0
 17 19  1  0  0  0  0
 17 48  1  0  0  0  0
 17 49  1  0  0  0  0
 18 20  1  0  0  0  0
 18 50  1  0  0  0  0
 18 51  1  0  0  0  0
 19 23  1  0  0  0  0
 19 52  1  0  0  0  0
 20 53  1  0  0  0  0
 20 54  1  0  0  0  0
 22 24  1  0  0  0  0
 22 25  1  6  0  0  0
 22 57  1  0  0  0  0
 23 26  2  0  0  0  0
 23 58  1  0  0  0  0
 25 29  1  0  0  0  0
 25 59  1  0  0  0  0
 25 60  1  0  0  0  0
 26 33  1  0  0  0  0
 26 61  1  0  0  0  0
 27 30  2  0  0  0  0
 27 62  1  0  0  0  0
 28 31  1  0  0  0  0
 29 63  1  0  0  0  0
 29 64  1  0  0  0  0
 29 65  1  0  0  0  0
 30 32  1  0  0  0  0
 30 34  1  0  0  0  0
 31 32  2  0  0  0  0
 32 66  1  0  0  0  0
 35 37  1  0  0  0  0
 36 38  1  0  0  0  0
 36 68  1  0  0  0  0
 36 69  1  0  0  0  0
 37 39  1  0  0  0  0
 38 40  2  0  0  0  0
 38 41  1  0  0  0  0
 39 42  2  0  0  0  0
 39 70  1  0  0  0  0
 40 43  1  0  0  0  0
 40 71  1  0  0  0  0
 41 44  2  0  0  0  0
 41 72  1  0  0  0  0
 42 45  1  0  0  0  0
 43 46  2  0  0  0  0
 43 73  1  0  0  0  0
 44 46  1  0  0  0  0
 44 74  1  0  0  0  0
 45 75  1  0  0  0  0
 45 76  1  0  0  0  0
 45 77  1  0  0  0  0
 46 78  1  0  0  0  0
M  END
> <PUBCHEM_COMPOUND_CID>
10233159

> <PUBCHEM_COMPOUND_CANONICALIZED>
1

> <PUBCHEM_CACTVS_COMPLEXITY>
1260

> <PUBCHEM_CACTVS_HBOND_ACCEPTOR>
11

> <PUBCHEM_CACTVS_HBOND_DONOR>
3

> <PUBCHEM_CACTVS_ROTATABLE_BOND>
13

> <PUBCHEM_CACTVS_SUBSKEYS>
AAADcfB7uYAAAAAAAAAAAAAAAAAAAWLAAAAwQAAAAAAAAAABwAAAHwAUAAAADSzhnhYyjJPQBACpA6X2WgCCAAAmIgAomKG+bNoIZjqAtbuWMYhm1hmI6ce/wCAOAAAAAAAAAAAAAAAAAAAAAAAAAAAAAA==

> <PUBCHEM_IUPAC_OPENEYE_NAME>
benzyl (E,4S)-4-[[(2S)-2-[3-[(5-methylisoxazole-3-carbonyl)amino]-2-oxo-5-(trifluoromethyl)-1-pyridyl]butanoyl]amino]-5-[(3S)-2-oxopyrrolidin-3-yl]pent-2-enoate

> <PUBCHEM_IUPAC_CAS_NAME>
(E,4S)-4-[[(2S)-2-[3-[[(5-methyl-3-isoxazolyl)-oxomethyl]amino]-2-oxo-5-(trifluoromethyl)-1-pyridinyl]-1-oxobutyl]amino]-5-[(3S)-2-oxo-3-pyrrolidinyl]-2-pentenoic acid (phenylmethyl) ester

> <PUBCHEM_IUPAC_NAME_MARKUP>
benzyl (<I>E</I>,4<I>S</I>)-4-[[(2<I>S</I>)-2-[3-[(5-methyl-1,2-oxazole-3-carbonyl)amino]-2-oxo-5-(trifluoromethyl)pyridin-1-yl]butanoyl]amino]-5-[(3<I>S</I>)-2-oxopyrrolidin-3-yl]pent-2-enoate

> <PUBCHEM_IUPAC_NAME>
benzyl (E,4S)-4-[[(2S)-2-[3-[(5-methyl-1,2-oxazole-3-carbonyl)amino]-2-oxo-5-(trifluoromethyl)pyridin-1-yl]butanoyl]amino]-5-[(3S)-2-oxopyrrolidin-3-yl]pent-2-enoate

> <PUBCHEM_IUPAC_SYSTEMATIC_NAME>
(phenylmethyl) (E,4S)-4-[[(2S)-2-[3-[(5-methyl-1,2-oxazol-3-yl)carbonylamino]-2-oxidanylidene-5-(trifluoromethyl)pyridin-1-yl]butanoyl]amino]-5-[(3S)-2-oxidanylidenepyrrolidin-3-yl]pent-2-enoate

> <PUBCHEM_IUPAC_TRADITIONAL_NAME>
(E,4S)-4-[[(2S)-2-[2-keto-3-[(5-methylisoxazole-3-carbonyl)amino]-5-(trifluoromethyl)-1-pyridyl]butanoyl]amino]-5-[(3S)-2-ketopyrrolidin-3-yl]pent-2-enoic acid benzyl ester

> <PUBCHEM_IUPAC_INCHI>
InChI=1S/C31H32F3N5O7/c1-3-25(39-16-21(31(32,33)34)15-24(30(39)44)37-28(42)23-13-18(2)46-38-23)29(43)36-22(14-20-11-12-35-27(20)41)9-10-26(40)45-17-19-7-5-4-6-8-19/h4-10,13,15-16,20,22,25H,3,11-12,14,17H2,1-2H3,(H,35,41)(H,36,43)(H,37,42)/b10-9+/t20-,22+,25-/m0/s1

> <PUBCHEM_IUPAC_INCHIKEY>
PDPJCWBGTYOGII-ZNLABWCGSA-N

> <PUBCHEM_XLOGP3_AA>
2.8

> <PUBCHEM_EXACT_MASS>
643.225383

> <PUBCHEM_MOLECULAR_FORMULA>
C31H32F3N5O7

> <PUBCHEM_MOLECULAR_WEIGHT>
643.6

> <PUBCHEM_OPENEYE_CAN_SMILES>
CCC(C(=O)NC(CC1CCNC1=O)C=CC(=O)OCC2=CC=CC=C2)N3C=C(C=C(C3=O)NC(=O)C4=NOC(=C4)C)C(F)(F)F

> <PUBCHEM_OPENEYE_ISO_SMILES>
CC[C@@H](C(=O)N[C@@H](C[C@@H]1CCNC1=O)/C=C/C(=O)OCC2=CC=CC=C2)N3C=C(C=C(C3=O)NC(=O)C4=NOC(=C4)C)C(F)(F)F

> <PUBCHEM_CACTVS_TPSA>
160

> <PUBCHEM_MONOISOTOPIC_WEIGHT>
643.225383

> <PUBCHEM_TOTAL_CHARGE>
0

> <PUBCHEM_HEAVY_ATOM_COUNT>
46

> <PUBCHEM_ATOM_DEF_STEREO_COUNT>
3

> <PUBCHEM_ATOM_UDEF_STEREO_COUNT>
0

> <PUBCHEM_BOND_DEF_STEREO_COUNT>
1

> <PUBCHEM_BOND_UDEF_STEREO_COUNT>
0

> <PUBCHEM_ISOTOPIC_ATOM_COUNT>
0

> <PUBCHEM_COMPONENT_COUNT>
1

> <PUBCHEM_CACTVS_TAUTO_COUNT>
-1

> <PUBCHEM_COORDINATE_TYPE>
1
5
255

> <PUBCHEM_BONDANNOTATIONS>
10  15  8
10  42  8
19  12  5
13  27  8
13  28  8
15  37  8
16  17  5
22  25  6
27  30  8
28  31  8
30  32  8
31  32  8
37  39  8
38  40  8
38  41  8
39  42  8
40  43  8
41  44  8
43  46  8
44  46  8

$$$$
10283874
  -OEChem-02212016592D

 91 95  0     1  0  0  0  0  0999 V2000
    7.9818   -4.5258    0.0000 F   0  0  0  0  0  0  0  0  0  0  0  0
    9.3479   -4.8919    0.0000 F   0  0  0  0  0  0  0  0  0  0  0  0
    9.7139   -3.5258    0.0000 F   0  0  0  0  0  0  0  0  0  0  0  0
   12.8479   -2.2938    0.0000 F   0  0  0  0  0  0  0  0  0  0  0  0
   11.8479   -4.0258    0.0000 F   0  0  0  0  0  0  0  0  0  0  0  0
    5.3479    3.7684    0.0000 O   0  0  0  0  0  0  0  0  0  0  0  0
   10.1266    4.6624    0.0000 O   0  0  0  0  0  0  0  0  0  0  0  0
    7.3479    0.3043    0.0000 O   0  0  0  0  0  0  0  0  0  0  0  0
    5.3479    2.0363    0.0000 O   0  0  0  0  0  0  0  0  0  0  0  0
    6.8479   -0.5617    0.0000 O   0  0  0  0  0  0  0  0  0  0  0  0
    5.8479   -4.0258    0.0000 O   0  0  0  0  0  0  0  0  0  0  0  0
    2.8090   -3.6598    0.0000 O   0  0  0  0  0  0  0  0  0  0  0  0
   11.3867    3.4024    0.0000 N   0  0  0  0  0  0  0  0  0  0  0  0
    8.8479    1.1703    0.0000 N   0  0  0  0  0  0  0  0  0  0  0  0
    8.3479   -1.4278    0.0000 N   0  0  0  0  0  0  0  0  0  0  0  0
    5.8479   -2.2938    0.0000 N   0  0  0  0  0  0  0  0  0  0  0  0
    3.7601   -3.9688    0.0000 N   0  0  0  0  0  0  0  0  0  0  0  0
    9.8479    2.9024    0.0000 C   0  0  2  0  0  0  0  0  0  0  0  0
    8.8479    2.9024    0.0000 C   0  0  0  0  0  0  0  0  0  0  0  0
   10.4356    2.0933    0.0000 C   0  0  0  0  0  0  0  0  0  0  0  0
    4.3479    3.7684    0.0000 C   0  0  0  0  0  0  0  0  0  0  0  0
    3.9140    2.8674    0.0000 C   0  0  0  0  0  0  0  0  0  0  0  0
    3.9140    4.6694    0.0000 C   0  0  0  0  0  0  0  0  0  0  0  0
    8.3479    2.0363    0.0000 C   0  0  1  0  0  0  0  0  0  0  0  0
    2.9390    2.6449    0.0000 C   0  0  0  0  0  0  0  0  0  0  0  0
    2.9390    4.8919    0.0000 C   0  0  0  0  0  0  0  0  0  0  0  0
    2.1572    3.2684    0.0000 C   0  0  0  0  0  0  0  0  0  0  0  0
    2.1572    4.2684    0.0000 C   0  0  0  0  0  0  0  0  0  0  0  0
   11.3867    2.4024    0.0000 C   0  0  0  0  0  0  0  0  0  0  0  0
   10.4356    3.7114    0.0000 C   0  0  0  0  0  0  0  0  0  0  0  0
    7.3479    2.0363    0.0000 C   0  0  0  0  0  0  0  0  0  0  0  0
    8.8479   -0.5617    0.0000 C   0  0  2  0  0  0  0  0  0  0  0  0
    8.3479    0.3043    0.0000 C   0  0  0  0  0  0  0  0  0  0  0  0
    6.8479    2.9024    0.0000 C   0  0  0  0  0  0  0  0  0  0  0  0
    5.8479    2.9024    0.0000 C   0  0  0  0  0  0  0  0  0  0  0  0
    9.8479   -0.5617    0.0000 C   0  0  0  0  0  0  0  0  0  0  0  0
   10.3479   -1.4278    0.0000 C   0  0  0  0  0  0  0  0  0  0  0  0
    8.8479   -2.2938    0.0000 C   0  0  0  0  0  0  0  0  0  0  0  0
    7.3479   -1.4278    0.0000 C   0  0  0  0  0  0  0  0  0  0  0  0
    8.3479   -3.1598    0.0000 C   0  0  0  0  0  0  0  0  0  0  0  0
    6.8479   -2.2938    0.0000 C   0  0  0  0  0  0  0  0  0  0  0  0
    7.3479   -3.1598    0.0000 C   0  0  0  0  0  0  0  0  0  0  0  0
   11.3479   -1.4278    0.0000 C   0  0  0  0  0  0  0  0  0  0  0  0
    9.8479   -2.2938    0.0000 C   0  0  0  0  0  0  0  0  0  0  0  0
    8.8479   -4.0258    0.0000 C   0  0  0  0  0  0  0  0  0  0  0  0
   11.8479   -2.2938    0.0000 C   0  0  0  0  0  0  0  0  0  0  0  0
   10.3479   -3.1598    0.0000 C   0  0  0  0  0  0  0  0  0  0  0  0
   11.3479   -3.1598    0.0000 C   0  0  0  0  0  0  0  0  0  0  0  0
    5.3479   -3.1598    0.0000 C   0  0  0  0  0  0  0  0  0  0  0  0
    4.3479   -3.1598    0.0000 C   0  0  0  0  0  0  0  0  0  0  0  0
    3.7601   -2.3508    0.0000 C   0  0  0  0  0  0  0  0  0  0  0  0
    2.8090   -2.6598    0.0000 C   0  0  0  0  0  0  0  0  0  0  0  0
    2.0000   -2.0720    0.0000 C   0  0  0  0  0  0  0  0  0  0  0  0
    9.5664    2.3499    0.0000 H   0  0  0  0  0  0  0  0  0  0  0  0
    8.9555    3.5129    0.0000 H   0  0  0  0  0  0  0  0  0  0  0  0
    8.2652    3.1144    0.0000 H   0  0  0  0  0  0  0  0  0  0  0  0
    9.8987    1.7833    0.0000 H   0  0  0  0  0  0  0  0  0  0  0  0
   10.6878    1.5269    0.0000 H   0  0  0  0  0  0  0  0  0  0  0  0
    4.6777    3.2434    0.0000 H   0  0  0  0  0  0  0  0  0  0  0  0
    3.9140    2.2474    0.0000 H   0  0  0  0  0  0  0  0  0  0  0  0
    4.5184    2.7294    0.0000 H   0  0  0  0  0  0  0  0  0  0  0  0
    4.5184    4.8073    0.0000 H   0  0  0  0  0  0  0  0  0  0  0  0
    3.9140    5.2894    0.0000 H   0  0  0  0  0  0  0  0  0  0  0  0
    8.9679    2.0363    0.0000 H   0  0  0  0  0  0  0  0  0  0  0  0
    2.4543    2.2583    0.0000 H   0  0  0  0  0  0  0  0  0  0  0  0
    3.2081    2.0863    0.0000 H   0  0  0  0  0  0  0  0  0  0  0  0
    3.2081    5.4505    0.0000 H   0  0  0  0  0  0  0  0  0  0  0  0
    2.4543    5.2784    0.0000 H   0  0  0  0  0  0  0  0  0  0  0  0
    1.5528    3.4064    0.0000 H   0  0  0  0  0  0  0  0  0  0  0  0
    1.8882    2.7098    0.0000 H   0  0  0  0  0  0  0  0  0  0  0  0
    1.8882    4.8270    0.0000 H   0  0  0  0  0  0  0  0  0  0  0  0
    1.5528    4.1304    0.0000 H   0  0  0  0  0  0  0  0  0  0  0  0
   11.5156    1.7959    0.0000 H   0  0  0  0  0  0  0  0  0  0  0  0
   12.0033    2.4672    0.0000 H   0  0  0  0  0  0  0  0  0  0  0  0
   11.8883    3.7668    0.0000 H   0  0  0  0  0  0  0  0  0  0  0  0
    9.4679    1.1703    0.0000 H   0  0  0  0  0  0  0  0  0  0  0  0
    7.0379    1.4994    0.0000 H   0  0  0  0  0  0  0  0  0  0  0  0
    8.2279   -0.5617    0.0000 H   0  0  0  0  0  0  0  0  0  0  0  0
    7.1579    3.4393    0.0000 H   0  0  0  0  0  0  0  0  0  0  0  0
   10.4305   -0.3497    0.0000 H   0  0  0  0  0  0  0  0  0  0  0  0
    9.7402    0.0488    0.0000 H   0  0  0  0  0  0  0  0  0  0  0  0
    9.4679   -2.2938    0.0000 H   0  0  0  0  0  0  0  0  0  0  0  0
    7.0379   -3.6968    0.0000 H   0  0  0  0  0  0  0  0  0  0  0  0
   11.6579   -0.8908    0.0000 H   0  0  0  0  0  0  0  0  0  0  0  0
    9.2279   -2.2938    0.0000 H   0  0  0  0  0  0  0  0  0  0  0  0
    5.5379   -1.7569    0.0000 H   0  0  0  0  0  0  0  0  0  0  0  0
   10.0379   -3.6968    0.0000 H   0  0  0  0  0  0  0  0  0  0  0  0
    3.9517   -1.7612    0.0000 H   0  0  0  0  0  0  0  0  0  0  0  0
    2.3644   -1.5704    0.0000 H   0  0  0  0  0  0  0  0  0  0  0  0
    1.4984   -1.7076    0.0000 H   0  0  0  0  0  0  0  0  0  0  0  0
    1.6356   -2.5736    0.0000 H   0  0  0  0  0  0  0  0  0  0  0  0
  1 45  1  0  0  0  0
  2 45  1  0  0  0  0
  3 45  1  0  0  0  0
  4 46  1  0  0  0  0
  5 48  1  0  0  0  0
  6 21  1  0  0  0  0
  6 35  1  0  0  0  0
  7 30  2  0  0  0  0
  8 33  2  0  0  0  0
  9 35  2  0  0  0  0
 10 39  2  0  0  0  0
 11 49  2  0  0  0  0
 12 17  1  0  0  0  0
 12 52  1  0  0  0  0
 13 29  1  0  0  0  0
 13 30  1  0  0  0  0
 13 75  1  0  0  0  0
 24 14  1  6  0  0  0
 14 33  1  0  0  0  0
 14 76  1  0  0  0  0
 15 32  1  0  0  0  0
 15 38  1  0  0  0  0
 15 39  1  0  0  0  0
 16 41  1  0  0  0  0
 16 49  1  0  0  0  0
 16 86  1  0  0  0  0
 17 50  2  0  0  0  0
 18 19  1  1  0  0  0
 18 20  1  0  0  0  0
 18 30  1  0  0  0  0
 18 54  1  0  0  0  0
 19 24  1  0  0  0  0
 19 55  1  0  0  0  0
 19 56  1  0  0  0  0
 20 29  1  0  0  0  0
 20 57  1  0  0  0  0
 20 58  1  0  0  0  0
 21 22  1  0  0  0  0
 21 23  1  0  0  0  0
 21 59  1  0  0  0  0
 22 25  1  0  0  0  0
 22 60  1  0  0  0  0
 22 61  1  0  0  0  0
 23 26  1  0  0  0  0
 23 62  1  0  0  0  0
 23 63  1  0  0  0  0
 24 31  1  0  0  0  0
 24 64  1  0  0  0  0
 25 27  1  0  0  0  0
 25 65  1  0  0  0  0
 25 66  1  0  0  0  0
 26 28  1  0  0  0  0
 26 67  1  0  0  0  0
 26 68  1  0  0  0  0
 27 28  1  0  0  0  0
 27 69  1  0  0  0  0
 27 70  1  0  0  0  0
 28 71  1  0  0  0  0
 28 72  1  0  0  0  0
 29 73  1  0  0  0  0
 29 74  1  0  0  0  0
 31 34  2  0  0  0  0
 31 77  1  0  0  0  0
 32 33  1  6  0  0  0
 32 36  1  0  0  0  0
 32 78  1  0  0  0  0
 34 35  1  0  0  0  0
 34 79  1  0  0  0  0
 36 37  1  0  0  0  0
 36 80  1  0  0  0  0
 36 81  1  0  0  0  0
 37 43  2  0  0  0  0
 37 44  1  0  0  0  0
 38 40  2  0  0  0  0
 38 82  1  0  0  0  0
 39 41  1  0  0  0  0
 40 42  1  0  0  0  0
 40 45  1  0  0  0  0
 41 42  2  0  0  0  0
 42 83  1  0  0  0  0
 43 46  1  0  0  0  0
 43 84  1  0  0  0  0
 44 47  2  0  0  0  0
 44 85  1  0  0  0  0
 46 48  2  0  0  0  0
 47 48  1  0  0  0  0
 47 87  1  0  0  0  0
 49 50  1  0  0  0  0
 50 51  1  0  0  0  0
 51 52  2  0  0  0  0
 51 88  1  0  0  0  0
 52 53  1  0  0  0  0
 53 89  1  0  0  0  0
 53 90  1  0  0  0  0
 53 91  1  0  0  0  0
M  END
> <PUBCHEM_COMPOUND_CID>
10283874

> <PUBCHEM_COMPOUND_CANONICALIZED>
1

> <PUBCHEM_CACTVS_COMPLEXITY>
1460

> <PUBCHEM_CACTVS_HBOND_ACCEPTOR>
13

> <PUBCHEM_CACTVS_HBOND_DONOR>
3

> <PUBCHEM_CACTVS_ROTATABLE_BOND>
13

> <PUBCHEM_CACTVS_SUBSKEYS>
AAADcfB/ucAAAAAAAAAAAAAAAAAAAWLAAAAwQAAABgAAAAABwAAAHwAUAAAADTzhnh4yjJPQBACpA6X2WgCCAAAmIgAomKG+bNoIZjqAtbOWMYhmlhiI6ce/yKCOAAAAAAAAAAAAAAAAAAAAAAAAAAAAAA==

> <PUBCHEM_IUPAC_OPENEYE_NAME>
cycloheptyl (E,4S)-4-[[(2S)-3-(3,4-difluorophenyl)-2-[3-[(5-methylisoxazole-3-carbonyl)amino]-2-oxo-5-(trifluoromethyl)-1-pyridyl]propanoyl]amino]-5-[(3S)-2-oxopyrrolidin-3-yl]pent-2-enoate

> <PUBCHEM_IUPAC_CAS_NAME>
(E,4S)-4-[[(2S)-3-(3,4-difluorophenyl)-2-[3-[[(5-methyl-3-isoxazolyl)-oxomethyl]amino]-2-oxo-5-(trifluoromethyl)-1-pyridinyl]-1-oxopropyl]amino]-5-[(3S)-2-oxo-3-pyrrolidinyl]-2-pentenoic acid cycloheptyl ester

> <PUBCHEM_IUPAC_NAME_MARKUP>
cycloheptyl (<I>E</I>,4<I>S</I>)-4-[[(2<I>S</I>)-3-(3,4-difluorophenyl)-2-[3-[(5-methyl-1,2-oxazole-3-carbonyl)amino]-2-oxo-5-(trifluoromethyl)pyridin-1-yl]propanoyl]amino]-5-[(3<I>S</I>)-2-oxopyrrolidin-3-yl]pent-2-enoate

> <PUBCHEM_IUPAC_NAME>
cycloheptyl (E,4S)-4-[[(2S)-3-(3,4-difluorophenyl)-2-[3-[(5-methyl-1,2-oxazole-3-carbonyl)amino]-2-oxo-5-(trifluoromethyl)pyridin-1-yl]propanoyl]amino]-5-[(3S)-2-oxopyrrolidin-3-yl]pent-2-enoate

> <PUBCHEM_IUPAC_SYSTEMATIC_NAME>
cycloheptyl (E,4S)-4-[[(2S)-3-[3,4-bis(fluoranyl)phenyl]-2-[3-[(5-methyl-1,2-oxazol-3-yl)carbonylamino]-2-oxidanylidene-5-(trifluoromethyl)pyridin-1-yl]propanoyl]amino]-5-[(3S)-2-oxidanylidenepyrrolidin-3-yl]pent-2-enoate

> <PUBCHEM_IUPAC_TRADITIONAL_NAME>
(E,4S)-4-[[(2S)-3-(3,4-difluorophenyl)-2-[2-keto-3-[(5-methylisoxazole-3-carbonyl)amino]-5-(trifluoromethyl)-1-pyridyl]propanoyl]amino]-5-[(3S)-2-ketopyrrolidin-3-yl]pent-2-enoic acid cycloheptyl ester

> <PUBCHEM_IUPAC_INCHI>
InChI=1S/C36H38F5N5O7/c1-20-14-28(45-53-20)33(49)44-29-18-23(36(39,40)41)19-46(35(29)51)30(16-21-8-10-26(37)27(38)15-21)34(50)43-24(17-22-12-13-42-32(22)48)9-11-31(47)52-25-6-4-2-3-5-7-25/h8-11,14-15,18-19,22,24-25,30H,2-7,12-13,16-17H2,1H3,(H,42,48)(H,43,50)(H,44,49)/b11-9+/t22-,24+,30-/m0/s1

> <PUBCHEM_IUPAC_INCHIKEY>
DXMRJSDXXKXMMG-PDXHHTLESA-N

> <PUBCHEM_XLOGP3_AA>
4.9

> <PUBCHEM_EXACT_MASS>
747.269139

> <PUBCHEM_MOLECULAR_FORMULA>
C36H38F5N5O7

> <PUBCHEM_MOLECULAR_WEIGHT>
747.7

> <PUBCHEM_OPENEYE_CAN_SMILES>
CC1=CC(=NO1)C(=O)NC2=CC(=CN(C2=O)C(CC3=CC(=C(C=C3)F)F)C(=O)NC(CC4CCNC4=O)C=CC(=O)OC5CCCCCC5)C(F)(F)F

> <PUBCHEM_OPENEYE_ISO_SMILES>
CC1=CC(=NO1)C(=O)NC2=CC(=CN(C2=O)[C@@H](CC3=CC(=C(C=C3)F)F)C(=O)N[C@@H](C[C@@H]4CCNC4=O)/C=C/C(=O)OC5CCCCCC5)C(F)(F)F

> <PUBCHEM_CACTVS_TPSA>
160

> <PUBCHEM_MONOISOTOPIC_WEIGHT>
747.269139

> <PUBCHEM_TOTAL_CHARGE>
0

> <PUBCHEM_HEAVY_ATOM_COUNT>
53

> <PUBCHEM_ATOM_DEF_STEREO_COUNT>
3

> <PUBCHEM_ATOM_UDEF_STEREO_COUNT>
0

> <PUBCHEM_BOND_DEF_STEREO_COUNT>
1

> <PUBCHEM_BOND_UDEF_STEREO_COUNT>
0

> <PUBCHEM_ISOTOPIC_ATOM_COUNT>
0

> <PUBCHEM_COMPONENT_COUNT>
1

> <PUBCHEM_CACTVS_TAUTO_COUNT>
-1

> <PUBCHEM_COORDINATE_TYPE>
1
5
255

> <PUBCHEM_BONDANNOTATIONS>
12  17  8
12  52  8
24  14  6
15  38  8
15  39  8
17  50  8
18  19  5
32  33  6
37  43  8
37  44  8
38  40  8
39  41  8
40  42  8
41  42  8
43  46  8
44  47  8
46  48  8
47  48  8
50  51  8
51  52  8

$$$$
10325977
  -OEChem-02212016592D

 79 81  0     1  0  0  0  0  0999 V2000
    7.9128   -3.8844    0.0000 F   0  0  0  0  0  0  0  0  0  0  0  0
   10.7383    3.7792    0.0000 O   0  0  0  0  0  0  0  0  0  0  0  0
    8.7788    1.6156    0.0000 O   0  0  0  0  0  0  0  0  0  0  0  0
    7.9128    2.1156    0.0000 O   0  0  0  0  0  0  0  0  0  0  0  0
   13.1090   -0.8844    0.0000 O   0  0  0  0  0  0  0  0  0  0  0  0
    4.4487    3.1156    0.0000 O   0  0  0  0  0  0  0  0  0  0  0  0
   12.2429   -2.3844    0.0000 O   0  0  0  0  0  0  0  0  0  0  0  0
    2.0000    1.2792    0.0000 O   0  0  0  0  0  0  0  0  0  0  0  0
   12.4596    3.3180    0.0000 N   0  0  0  0  0  0  0  0  0  0  0  0
    9.6448    0.1156    0.0000 N   0  0  0  0  0  0  0  0  0  0  0  0
    5.3147    1.6156    0.0000 N   0  0  0  0  0  0  0  0  0  0  0  0
    2.6691    2.0223    0.0000 N   0  0  0  0  0  0  0  0  0  0  0  0
   11.3769    2.1156    0.0000 C   0  0  3  0  0  0  0  0  0  0  0  0
   10.5109    1.6156    0.0000 C   0  0  0  0  0  0  0  0  0  0  0  0
   12.2905    1.7088    0.0000 C   0  0  0  0  0  0  0  0  0  0  0  0
   10.5109    0.6156    0.0000 C   0  0  3  0  0  0  0  0  0  0  0  0
   12.9596    2.4520    0.0000 C   0  0  0  0  0  0  0  0  0  0  0  0
   11.4814    3.1101    0.0000 C   0  0  0  0  0  0  0  0  0  0  0  0
    7.9128    0.1156    0.0000 C   0  0  3  0  0  0  0  0  0  0  0  0
    7.0468    0.6156    0.0000 C   0  0  0  0  0  0  0  0  0  0  0  0
    6.1808    2.1156    0.0000 C   0  0  3  0  0  0  0  0  0  0  0  0
    8.7788    0.6156    0.0000 C   0  0  0  0  0  0  0  0  0  0  0  0
   11.3769    0.1156    0.0000 C   0  0  0  0  0  0  0  0  0  0  0  0
    6.1808    3.1156    0.0000 C   0  0  0  0  0  0  0  0  0  0  0  0
    7.0468    1.6156    0.0000 C   0  0  0  0  0  0  0  0  0  0  0  0
    7.9128   -0.8844    0.0000 C   0  0  0  0  0  0  0  0  0  0  0  0
    5.3147    3.6156    0.0000 C   0  0  0  0  0  0  0  0  0  0  0  0
    7.0468    3.6156    0.0000 C   0  0  0  0  0  0  0  0  0  0  0  0
   11.3769   -0.8844    0.0000 C   0  0  0  0  0  0  0  0  0  0  0  0
    8.7788   -1.3844    0.0000 C   0  0  0  0  0  0  0  0  0  0  0  0
    7.0468   -1.3844    0.0000 C   0  0  0  0  0  0  0  0  0  0  0  0
    4.4487    2.1156    0.0000 C   0  0  0  0  0  0  0  0  0  0  0  0
    8.7788   -2.3844    0.0000 C   0  0  0  0  0  0  0  0  0  0  0  0
    7.0468   -2.3844    0.0000 C   0  0  0  0  0  0  0  0  0  0  0  0
   12.2429   -1.3844    0.0000 C   0  0  0  0  0  0  0  0  0  0  0  0
    7.9128   -2.8844    0.0000 C   0  0  0  0  0  0  0  0  0  0  0  0
    3.5827    1.6156    0.0000 C   0  0  0  0  0  0  0  0  0  0  0  0
    3.4782    0.6211    0.0000 C   0  0  0  0  0  0  0  0  0  0  0  0
    2.5000    0.4132    0.0000 C   0  0  0  0  0  0  0  0  0  0  0  0
   13.9750   -1.3844    0.0000 C   0  0  0  0  0  0  0  0  0  0  0  0
    2.0933   -0.5004    0.0000 C   0  0  0  0  0  0  0  0  0  0  0  0
   14.8410   -0.8844    0.0000 C   0  0  0  0  0  0  0  0  0  0  0  0
   10.8569    2.4533    0.0000 H   0  0  0  0  0  0  0  0  0  0  0  0
   10.2988    2.1982    0.0000 H   0  0  0  0  0  0  0  0  0  0  0  0
    9.9003    1.5079    0.0000 H   0  0  0  0  0  0  0  0  0  0  0  0
   11.9805    1.1719    0.0000 H   0  0  0  0  0  0  0  0  0  0  0  0
   12.7920    1.3444    0.0000 H   0  0  0  0  0  0  0  0  0  0  0  0
   10.5109   -0.0044    0.0000 H   0  0  0  0  0  0  0  0  0  0  0  0
   13.3744    1.9912    0.0000 H   0  0  0  0  0  0  0  0  0  0  0  0
   13.4612    2.8164    0.0000 H   0  0  0  0  0  0  0  0  0  0  0  0
   12.7118    3.8844    0.0000 H   0  0  0  0  0  0  0  0  0  0  0  0
    7.9128    0.7356    0.0000 H   0  0  0  0  0  0  0  0  0  0  0  0
    9.6448   -0.5044    0.0000 H   0  0  0  0  0  0  0  0  0  0  0  0
    6.4362    0.7232    0.0000 H   0  0  0  0  0  0  0  0  0  0  0  0
    6.8347    0.0330    0.0000 H   0  0  0  0  0  0  0  0  0  0  0  0
    6.1808    1.4956    0.0000 H   0  0  0  0  0  0  0  0  0  0  0  0
   11.9138    0.4256    0.0000 H   0  0  0  0  0  0  0  0  0  0  0  0
    6.1808    3.7356    0.0000 H   0  0  0  0  0  0  0  0  0  0  0  0
    5.6247    4.1525    0.0000 H   0  0  0  0  0  0  0  0  0  0  0  0
    4.7778    3.9256    0.0000 H   0  0  0  0  0  0  0  0  0  0  0  0
    5.0047    3.0786    0.0000 H   0  0  0  0  0  0  0  0  0  0  0  0
    7.3568    3.0786    0.0000 H   0  0  0  0  0  0  0  0  0  0  0  0
    7.5837    3.9256    0.0000 H   0  0  0  0  0  0  0  0  0  0  0  0
    6.7368    4.1525    0.0000 H   0  0  0  0  0  0  0  0  0  0  0  0
    5.3147    0.9956    0.0000 H   0  0  0  0  0  0  0  0  0  0  0  0
   10.8400   -1.1944    0.0000 H   0  0  0  0  0  0  0  0  0  0  0  0
    9.3158   -1.0744    0.0000 H   0  0  0  0  0  0  0  0  0  0  0  0
    6.5098   -1.0744    0.0000 H   0  0  0  0  0  0  0  0  0  0  0  0
    9.3158   -2.6944    0.0000 H   0  0  0  0  0  0  0  0  0  0  0  0
    6.5098   -2.6944    0.0000 H   0  0  0  0  0  0  0  0  0  0  0  0
    3.9389    0.2062    0.0000 H   0  0  0  0  0  0  0  0  0  0  0  0
   13.5765   -1.8594    0.0000 H   0  0  0  0  0  0  0  0  0  0  0  0
   14.3735   -1.8594    0.0000 H   0  0  0  0  0  0  0  0  0  0  0  0
    1.5269   -0.2482    0.0000 H   0  0  0  0  0  0  0  0  0  0  0  0
    1.8411   -1.0668    0.0000 H   0  0  0  0  0  0  0  0  0  0  0  0
    2.6597   -0.7526    0.0000 H   0  0  0  0  0  0  0  0  0  0  0  0
   15.1510   -1.4213    0.0000 H   0  0  0  0  0  0  0  0  0  0  0  0
   15.3779   -0.5744    0.0000 H   0  0  0  0  0  0  0  0  0  0  0  0
   14.5310   -0.3475    0.0000 H   0  0  0  0  0  0  0  0  0  0  0  0
  1 36  1  0  0  0  0
  2 18  2  0  0  0  0
  3 22  2  0  0  0  0
  4 25  2  0  0  0  0
  5 35  1  0  0  0  0
  5 40  1  0  0  0  0
  6 32  2  0  0  0  0
  7 35  2  0  0  0  0
  8 12  1  0  0  0  0
  8 39  1  0  0  0  0
  9 17  1  0  0  0  0
  9 18  1  0  0  0  0
  9 51  1  0  0  0  0
 10 16  1  0  0  0  0
 10 22  1  0  0  0  0
 10 53  1  0  0  0  0
 11 21  1  0  0  0  0
 11 32  1  0  0  0  0
 11 65  1  0  0  0  0
 12 37  2  0  0  0  0
 13 14  1  0  0  0  0
 13 15  1  0  0  0  0
 13 18  1  0  0  0  0
 13 43  1  0  0  0  0
 14 16  1  0  0  0  0
 14 44  1  0  0  0  0
 14 45  1  0  0  0  0
 15 17  1  0  0  0  0
 15 46  1  0  0  0  0
 15 47  1  0  0  0  0
 16 23  1  0  0  0  0
 16 48  1  0  0  0  0
 17 49  1  0  0  0  0
 17 50  1  0  0  0  0
 19 20  1  0  0  0  0
 19 22  1  0  0  0  0
 19 26  1  0  0  0  0
 19 52  1  0  0  0  0
 20 25  1  0  0  0  0
 20 54  1  0  0  0  0
 20 55  1  0  0  0  0
 21 24  1  0  0  0  0
 21 25  1  0  0  0  0
 21 56  1  0  0  0  0
 23 29  2  0  0  0  0
 23 57  1  0  0  0  0
 24 27  1  0  0  0  0
 24 28  1  0  0  0  0
 24 58  1  0  0  0  0
 26 30  2  0  0  0  0
 26 31  1  0  0  0  0
 27 59  1  0  0  0  0
 27 60  1  0  0  0  0
 27 61  1  0  0  0  0
 28 62  1  0  0  0  0
 28 63  1  0  0  0  0
 28 64  1  0  0  0  0
 29 35  1  0  0  0  0
 29 66  1  0  0  0  0
 30 33  1  0  0  0  0
 30 67  1  0  0  0  0
 31 34  2  0  0  0  0
 31 68  1  0  0  0  0
 32 37  1  0  0  0  0
 33 36  2  0  0  0  0
 33 69  1  0  0  0  0
 34 36  1  0  0  0  0
 34 70  1  0  0  0  0
 37 38  1  0  0  0  0
 38 39  2  0  0  0  0
 38 71  1  0  0  0  0
 39 41  1  0  0  0  0
 40 42  1  0  0  0  0
 40 72  1  0  0  0  0
 40 73  1  0  0  0  0
 41 74  1  0  0  0  0
 41 75  1  0  0  0  0
 41 76  1  0  0  0  0
 42 77  1  0  0  0  0
 42 78  1  0  0  0  0
 42 79  1  0  0  0  0
M  END
> <PUBCHEM_COMPOUND_CID>
10325977

> <PUBCHEM_COMPOUND_CANONICALIZED>
1

> <PUBCHEM_CACTVS_COMPLEXITY>
998

> <PUBCHEM_CACTVS_HBOND_ACCEPTOR>
9

> <PUBCHEM_CACTVS_HBOND_DONOR>
3

> <PUBCHEM_CACTVS_ROTATABLE_BOND>
15

> <PUBCHEM_CACTVS_SUBSKEYS>
AAADcfB7uQAAAAAAAAAAAAAAAAAAAWLAAAAwAAAAAAAAAAABwAAAHwAUAAAADSzhng4yjJLQBACpA6XyWgCCAAAmIgAomKG+bNoIZjqAtbOWMYhmlhiI6cc/icCegAAAAAAAAAAAAAAAAAAAAAAAAAAAAA==

> <PUBCHEM_IUPAC_OPENEYE_NAME>
ethyl (E)-4-[[2-(4-fluorophenyl)-6-methyl-5-[(5-methylisoxazole-3-carbonyl)amino]-4-oxo-heptanoyl]amino]-5-(2-oxopyrrolidin-3-yl)pent-2-enoate

> <PUBCHEM_IUPAC_CAS_NAME>
(E)-4-[[2-(4-fluorophenyl)-6-methyl-5-[[(5-methyl-3-isoxazolyl)-oxomethyl]amino]-1,4-dioxoheptyl]amino]-5-(2-oxo-3-pyrrolidinyl)-2-pentenoic acid ethyl ester

> <PUBCHEM_IUPAC_NAME_MARKUP>
ethyl (<I>E</I>)-4-[[2-(4-fluorophenyl)-6-methyl-5-[(5-methyl-1,2-oxazole-3-carbonyl)amino]-4-oxoheptanoyl]amino]-5-(2-oxopyrrolidin-3-yl)pent-2-enoate

> <PUBCHEM_IUPAC_NAME>
ethyl (E)-4-[[2-(4-fluorophenyl)-6-methyl-5-[(5-methyl-1,2-oxazole-3-carbonyl)amino]-4-oxoheptanoyl]amino]-5-(2-oxopyrrolidin-3-yl)pent-2-enoate

> <PUBCHEM_IUPAC_SYSTEMATIC_NAME>
ethyl (E)-4-[[2-(4-fluorophenyl)-6-methyl-5-[(5-methyl-1,2-oxazol-3-yl)carbonylamino]-4-oxidanylidene-heptanoyl]amino]-5-(2-oxidanylidenepyrrolidin-3-yl)pent-2-enoate

> <PUBCHEM_IUPAC_TRADITIONAL_NAME>
(E)-4-[[2-(4-fluorophenyl)-4-keto-6-methyl-5-[(5-methylisoxazole-3-carbonyl)amino]heptanoyl]amino]-5-(2-ketopyrrolidin-3-yl)pent-2-enoic acid ethyl ester

> <PUBCHEM_IUPAC_INCHI>
InChI=1S/C30H37FN4O7/c1-5-41-26(37)11-10-22(15-20-12-13-32-28(20)38)33-29(39)23(19-6-8-21(31)9-7-19)16-25(36)27(17(2)3)34-30(40)24-14-18(4)42-35-24/h6-11,14,17,20,22-23,27H,5,12-13,15-16H2,1-4H3,(H,32,38)(H,33,39)(H,34,40)/b11-10+

> <PUBCHEM_IUPAC_INCHIKEY>
GPFPUCCAVGIJMU-ZHACJKMWSA-N

> <PUBCHEM_XLOGP3_AA>
2.8

> <PUBCHEM_EXACT_MASS>
584.264628

> <PUBCHEM_MOLECULAR_FORMULA>
C30H37FN4O7

> <PUBCHEM_MOLECULAR_WEIGHT>
584.6

> <PUBCHEM_OPENEYE_CAN_SMILES>
CCOC(=O)C=CC(CC1CCNC1=O)NC(=O)C(CC(=O)C(C(C)C)NC(=O)C2=NOC(=C2)C)C3=CC=C(C=C3)F

> <PUBCHEM_OPENEYE_ISO_SMILES>
CCOC(=O)/C=C/C(CC1CCNC1=O)NC(=O)C(CC(=O)C(C(C)C)NC(=O)C2=NOC(=C2)C)C3=CC=C(C=C3)F

> <PUBCHEM_CACTVS_TPSA>
157

> <PUBCHEM_MONOISOTOPIC_WEIGHT>
584.264628

> <PUBCHEM_TOTAL_CHARGE>
0

> <PUBCHEM_HEAVY_ATOM_COUNT>
42

> <PUBCHEM_ATOM_DEF_STEREO_COUNT>
0

> <PUBCHEM_ATOM_UDEF_STEREO_COUNT>
4

> <PUBCHEM_BOND_DEF_STEREO_COUNT>
1

> <PUBCHEM_BOND_UDEF_STEREO_COUNT>
0

> <PUBCHEM_ISOTOPIC_ATOM_COUNT>
0

> <PUBCHEM_COMPONENT_COUNT>
1

> <PUBCHEM_CACTVS_TAUTO_COUNT>
-1

> <PUBCHEM_COORDINATE_TYPE>
1
5
255

> <PUBCHEM_BONDANNOTATIONS>
12  37  8
13  14  3
16  14  3
19  20  3
21  24  3
26  30  8
26  31  8
30  33  8
31  34  8
33  36  8
34  36  8
37  38  8
38  39  8
8  12  8
8  39  8

$$$$
11456159
  -OEChem-02212016592D

 82 84  0     1  0  0  0  0  0999 V2000
    5.4641   -5.2702    0.0000 F   0  0  0  0  0  0  0  0  0  0  0  0
    8.0902    3.5086    0.0000 O   0  0  0  0  0  0  0  0  0  0  0  0
    7.1962    0.7298    0.0000 O   0  0  0  0  0  0  0  0  0  0  0  0
    8.0622    0.2298    0.0000 O   0  0  0  0  0  0  0  0  0  0  0  0
    2.8660    3.2298    0.0000 O   0  0  0  0  0  0  0  0  0  0  0  0
   10.6603   -2.2702    0.0000 O   0  0  0  0  0  0  0  0  0  0  0  0
    2.0000    1.7298    0.0000 O   0  0  0  0  0  0  0  0  0  0  0  0
   12.6090    0.4322    0.0000 O   0  0  0  0  0  0  0  0  0  0  0  0
    6.8301    4.7686    0.0000 N   0  0  0  0  0  0  0  0  0  0  0  0
    5.4641    0.7298    0.0000 N   0  0  0  0  0  0  0  0  0  0  0  0
    9.7942   -0.7702    0.0000 N   0  0  0  0  0  0  0  0  0  0  0  0
   11.6308    0.2243    0.0000 N   0  0  0  0  0  0  0  0  0  0  0  0
    6.3301    3.2298    0.0000 C   0  0  3  0  0  0  0  0  0  0  0  0
    6.3301    2.2298    0.0000 C   0  0  0  0  0  0  0  0  0  0  0  0
    5.5211    3.8176    0.0000 C   0  0  0  0  0  0  0  0  0  0  0  0
    5.4641    1.7298    0.0000 C   0  0  3  0  0  0  0  0  0  0  0  0
    5.8301    4.7686    0.0000 C   0  0  0  0  0  0  0  0  0  0  0  0
    7.1391    3.8176    0.0000 C   0  0  0  0  0  0  0  0  0  0  0  0
    6.3301   -0.7702    0.0000 C   0  0  3  0  0  0  0  0  0  0  0  0
    7.1962   -1.2702    0.0000 C   0  0  0  0  0  0  0  0  0  0  0  0
    6.3301    0.2298    0.0000 C   0  0  0  0  0  0  0  0  0  0  0  0
    8.9282   -1.2702    0.0000 C   0  0  3  0  0  0  0  0  0  0  0  0
    5.4641   -1.2702    0.0000 C   0  0  0  0  0  0  0  0  0  0  0  0
    8.9282   -2.2702    0.0000 C   0  0  0  0  0  0  0  0  0  0  0  0
    8.0622   -0.7702    0.0000 C   0  0  0  0  0  0  0  0  0  0  0  0
    4.5981    2.2298    0.0000 C   0  0  0  0  0  0  0  0  0  0  0  0
    5.4641   -2.2702    0.0000 C   0  0  0  0  0  0  0  0  0  0  0  0
    9.7942   -2.7702    0.0000 C   0  0  0  0  0  0  0  0  0  0  0  0
    8.0622   -2.7702    0.0000 C   0  0  0  0  0  0  0  0  0  0  0  0
    3.7320    1.7298    0.0000 C   0  0  0  0  0  0  0  0  0  0  0  0
    6.3301   -2.7702    0.0000 C   0  0  0  0  0  0  0  0  0  0  0  0
    4.5981   -2.7702    0.0000 C   0  0  0  0  0  0  0  0  0  0  0  0
   10.6603   -1.2702    0.0000 C   0  0  0  0  0  0  0  0  0  0  0  0
    2.8660    2.2298    0.0000 C   0  0  0  0  0  0  0  0  0  0  0  0
    6.3301   -3.7702    0.0000 C   0  0  0  0  0  0  0  0  0  0  0  0
    4.5981   -3.7702    0.0000 C   0  0  0  0  0  0  0  0  0  0  0  0
   11.5263   -0.7702    0.0000 C   0  0  0  0  0  0  0  0  0  0  0  0
    5.4641   -4.2702    0.0000 C   0  0  0  0  0  0  0  0  0  0  0  0
   12.4398   -1.1770    0.0000 C   0  0  0  0  0  0  0  0  0  0  0  0
   13.1090   -0.4338    0.0000 C   0  0  0  0  0  0  0  0  0  0  0  0
    2.0000    3.7298    0.0000 C   0  0  0  0  0  0  0  0  0  0  0  0
   14.1035   -0.5383    0.0000 C   0  0  0  0  0  0  0  0  0  0  0  0
    2.0000    4.7298    0.0000 C   0  0  0  0  0  0  0  0  0  0  0  0
    6.8826    2.9483    0.0000 H   0  0  0  0  0  0  0  0  0  0  0  0
    6.5422    1.6472    0.0000 H   0  0  0  0  0  0  0  0  0  0  0  0
    6.9407    2.3374    0.0000 H   0  0  0  0  0  0  0  0  0  0  0  0
    4.9547    4.0698    0.0000 H   0  0  0  0  0  0  0  0  0  0  0  0
    5.2111    3.2806    0.0000 H   0  0  0  0  0  0  0  0  0  0  0  0
    6.0010    1.4198    0.0000 H   0  0  0  0  0  0  0  0  0  0  0  0
    5.8949    5.3852    0.0000 H   0  0  0  0  0  0  0  0  0  0  0  0
    5.2237    4.8975    0.0000 H   0  0  0  0  0  0  0  0  0  0  0  0
    6.8671   -0.4602    0.0000 H   0  0  0  0  0  0  0  0  0  0  0  0
    7.1946    5.2702    0.0000 H   0  0  0  0  0  0  0  0  0  0  0  0
    6.7976   -1.7452    0.0000 H   0  0  0  0  0  0  0  0  0  0  0  0
    7.5947   -1.7452    0.0000 H   0  0  0  0  0  0  0  0  0  0  0  0
    4.9272    0.4198    0.0000 H   0  0  0  0  0  0  0  0  0  0  0  0
    8.9282   -0.6502    0.0000 H   0  0  0  0  0  0  0  0  0  0  0  0
    5.2520   -0.6876    0.0000 H   0  0  0  0  0  0  0  0  0  0  0  0
    4.8535   -1.3779    0.0000 H   0  0  0  0  0  0  0  0  0  0  0  0
    9.4651   -1.9602    0.0000 H   0  0  0  0  0  0  0  0  0  0  0  0
    4.5981    2.8498    0.0000 H   0  0  0  0  0  0  0  0  0  0  0  0
    9.7942   -0.1502    0.0000 H   0  0  0  0  0  0  0  0  0  0  0  0
    9.4842   -3.3072    0.0000 H   0  0  0  0  0  0  0  0  0  0  0  0
   10.3312   -3.0802    0.0000 H   0  0  0  0  0  0  0  0  0  0  0  0
   10.1042   -2.2333    0.0000 H   0  0  0  0  0  0  0  0  0  0  0  0
    7.7522   -2.2333    0.0000 H   0  0  0  0  0  0  0  0  0  0  0  0
    7.5252   -3.0802    0.0000 H   0  0  0  0  0  0  0  0  0  0  0  0
    8.3722   -3.3072    0.0000 H   0  0  0  0  0  0  0  0  0  0  0  0
    3.7320    1.1098    0.0000 H   0  0  0  0  0  0  0  0  0  0  0  0
    6.8671   -2.4602    0.0000 H   0  0  0  0  0  0  0  0  0  0  0  0
    4.0611   -2.4602    0.0000 H   0  0  0  0  0  0  0  0  0  0  0  0
    6.8671   -4.0802    0.0000 H   0  0  0  0  0  0  0  0  0  0  0  0
    4.0611   -4.0802    0.0000 H   0  0  0  0  0  0  0  0  0  0  0  0
   12.5687   -1.7834    0.0000 H   0  0  0  0  0  0  0  0  0  0  0  0
    1.3894    3.8374    0.0000 H   0  0  0  0  0  0  0  0  0  0  0  0
    1.7880    3.1472    0.0000 H   0  0  0  0  0  0  0  0  0  0  0  0
   14.0387   -1.1549    0.0000 H   0  0  0  0  0  0  0  0  0  0  0  0
   14.7201   -0.6031    0.0000 H   0  0  0  0  0  0  0  0  0  0  0  0
   14.1683    0.0783    0.0000 H   0  0  0  0  0  0  0  0  0  0  0  0
    2.6200    4.7298    0.0000 H   0  0  0  0  0  0  0  0  0  0  0  0
    2.0000    5.3498    0.0000 H   0  0  0  0  0  0  0  0  0  0  0  0
    1.3800    4.7298    0.0000 H   0  0  0  0  0  0  0  0  0  0  0  0
  1 38  1  0  0  0  0
  2 18  2  0  0  0  0
  3 21  2  0  0  0  0
  4 25  2  0  0  0  0
  5 34  1  0  0  0  0
  5 41  1  0  0  0  0
  6 33  2  0  0  0  0
  7 34  2  0  0  0  0
  8 12  1  0  0  0  0
  8 40  1  0  0  0  0
  9 17  1  0  0  0  0
  9 18  1  0  0  0  0
  9 53  1  0  0  0  0
 10 16  1  0  0  0  0
 10 21  1  0  0  0  0
 10 56  1  0  0  0  0
 11 22  1  0  0  0  0
 11 33  1  0  0  0  0
 11 62  1  0  0  0  0
 12 37  2  0  0  0  0
 13 14  1  0  0  0  0
 13 15  1  0  0  0  0
 13 18  1  0  0  0  0
 13 44  1  0  0  0  0
 14 16  1  0  0  0  0
 14 45  1  0  0  0  0
 14 46  1  0  0  0  0
 15 17  1  0  0  0  0
 15 47  1  0  0  0  0
 15 48  1  0  0  0  0
 16 26  1  0  0  0  0
 16 49  1  0  0  0  0
 17 50  1  0  0  0  0
 17 51  1  0  0  0  0
 19 20  1  0  0  0  0
 19 21  1  0  0  0  0
 19 23  1  0  0  0  0
 19 52  1  0  0  0  0
 20 25  1  0  0  0  0
 20 54  1  0  0  0  0
 20 55  1  0  0  0  0
 22 24  1  0  0  0  0
 22 25  1  0  0  0  0
 22 57  1  0  0  0  0
 23 27  1  0  0  0  0
 23 58  1  0  0  0  0
 23 59  1  0  0  0  0
 24 28  1  0  0  0  0
 24 29  1  0  0  0  0
 24 60  1  0  0  0  0
 26 30  2  0  0  0  0
 26 61  1  0  0  0  0
 27 31  2  0  0  0  0
 27 32  1  0  0  0  0
 28 63  1  0  0  0  0
 28 64  1  0  0  0  0
 28 65  1  0  0  0  0
 29 66  1  0  0  0  0
 29 67  1  0  0  0  0
 29 68  1  0  0  0  0
 30 34  1  0  0  0  0
 30 69  1  0  0  0  0
 31 35  1  0  0  0  0
 31 70  1  0  0  0  0
 32 36  2  0  0  0  0
 32 71  1  0  0  0  0
 33 37  1  0  0  0  0
 35 38  2  0  0  0  0
 35 72  1  0  0  0  0
 36 38  1  0  0  0  0
 36 73  1  0  0  0  0
 37 39  1  0  0  0  0
 39 40  2  0  0  0  0
 39 74  1  0  0  0  0
 40 42  1  0  0  0  0
 41 43  1  0  0  0  0
 41 75  1  0  0  0  0
 41 76  1  0  0  0  0
 42 77  1  0  0  0  0
 42 78  1  0  0  0  0
 42 79  1  0  0  0  0
 43 80  1  0  0  0  0
 43 81  1  0  0  0  0
 43 82  1  0  0  0  0
M  END
> <PUBCHEM_COMPOUND_CID>
11456159

> <PUBCHEM_COMPOUND_CANONICALIZED>
1

> <PUBCHEM_CACTVS_COMPLEXITY>
1010

> <PUBCHEM_CACTVS_HBOND_ACCEPTOR>
9

> <PUBCHEM_CACTVS_HBOND_DONOR>
3

> <PUBCHEM_CACTVS_ROTATABLE_BOND>
16

> <PUBCHEM_CACTVS_SUBSKEYS>
AAADcfB7uQAAAAAAAAAAAAAAAAAAAWLAAAAwAAAAAAAAAAABwAAAHwAUAAAADSzhng4yjJLQBACpA6XyWgCCAAAmIgAomKG+bNoIZjqAtbOWMYhmlhiI6cc/icCeAAAAAAAAAAAAAAAAAAAAAAAAAAAAAA==

> <PUBCHEM_IUPAC_OPENEYE_NAME>
ethyl (E)-4-[[2-[(4-fluorophenyl)methyl]-6-methyl-5-[(5-methylisoxazole-3-carbonyl)amino]-4-oxo-heptanoyl]amino]-5-(2-oxopyrrolidin-3-yl)pent-2-enoate

> <PUBCHEM_IUPAC_CAS_NAME>
(E)-4-[[2-[(4-fluorophenyl)methyl]-6-methyl-5-[[(5-methyl-3-isoxazolyl)-oxomethyl]amino]-1,4-dioxoheptyl]amino]-5-(2-oxo-3-pyrrolidinyl)-2-pentenoic acid ethyl ester

> <PUBCHEM_IUPAC_NAME_MARKUP>
ethyl (<I>E</I>)-4-[[2-[(4-fluorophenyl)methyl]-6-methyl-5-[(5-methyl-1,2-oxazole-3-carbonyl)amino]-4-oxoheptanoyl]amino]-5-(2-oxopyrrolidin-3-yl)pent-2-enoate

> <PUBCHEM_IUPAC_NAME>
ethyl (E)-4-[[2-[(4-fluorophenyl)methyl]-6-methyl-5-[(5-methyl-1,2-oxazole-3-carbonyl)amino]-4-oxoheptanoyl]amino]-5-(2-oxopyrrolidin-3-yl)pent-2-enoate

> <PUBCHEM_IUPAC_SYSTEMATIC_NAME>
ethyl (E)-4-[[2-[(4-fluorophenyl)methyl]-6-methyl-5-[(5-methyl-1,2-oxazol-3-yl)carbonylamino]-4-oxidanylidene-heptanoyl]amino]-5-(2-oxidanylidenepyrrolidin-3-yl)pent-2-enoate

> <PUBCHEM_IUPAC_TRADITIONAL_NAME>
(E)-4-[[2-(4-fluorobenzyl)-4-keto-6-methyl-5-[(5-methylisoxazole-3-carbonyl)amino]heptanoyl]amino]-5-(2-ketopyrrolidin-3-yl)pent-2-enoic acid ethyl ester

> <PUBCHEM_IUPAC_INCHI>
InChI=1S/C31H39FN4O7/c1-5-42-27(38)11-10-24(16-21-12-13-33-29(21)39)34-30(40)22(15-20-6-8-23(32)9-7-20)17-26(37)28(18(2)3)35-31(41)25-14-19(4)43-36-25/h6-11,14,18,21-22,24,28H,5,12-13,15-17H2,1-4H3,(H,33,39)(H,34,40)(H,35,41)/b11-10+

> <PUBCHEM_IUPAC_INCHIKEY>
CAYJBRBGZBCZKO-ZHACJKMWSA-N

> <PUBCHEM_XLOGP3_AA>
3.1

> <PUBCHEM_EXACT_MASS>
598.280278

> <PUBCHEM_MOLECULAR_FORMULA>
C31H39FN4O7

> <PUBCHEM_MOLECULAR_WEIGHT>
598.7

> <PUBCHEM_OPENEYE_CAN_SMILES>
CCOC(=O)C=CC(CC1CCNC1=O)NC(=O)C(CC2=CC=C(C=C2)F)CC(=O)C(C(C)C)NC(=O)C3=NOC(=C3)C

> <PUBCHEM_OPENEYE_ISO_SMILES>
CCOC(=O)/C=C/C(CC1CCNC1=O)NC(=O)C(CC2=CC=C(C=C2)F)CC(=O)C(C(C)C)NC(=O)C3=NOC(=C3)C

> <PUBCHEM_CACTVS_TPSA>
157

> <PUBCHEM_MONOISOTOPIC_WEIGHT>
598.280278

> <PUBCHEM_TOTAL_CHARGE>
0

> <PUBCHEM_HEAVY_ATOM_COUNT>
43

> <PUBCHEM_ATOM_DEF_STEREO_COUNT>
0

> <PUBCHEM_ATOM_UDEF_STEREO_COUNT>
4

> <PUBCHEM_BOND_DEF_STEREO_COUNT>
1

> <PUBCHEM_BOND_UDEF_STEREO_COUNT>
0

> <PUBCHEM_ISOTOPIC_ATOM_COUNT>
0

> <PUBCHEM_COMPONENT_COUNT>
1

> <PUBCHEM_CACTVS_TAUTO_COUNT>
-1

> <PUBCHEM_COORDINATE_TYPE>
1
5
255

> <PUBCHEM_BONDANNOTATIONS>
12  37  8
13  14  3
16  14  3
19  23  3
22  24  3
27  31  8
27  32  8
31  35  8
32  36  8
35  38  8
36  38  8
37  39  8
39  40  8
8  12  8
8  40  8

$$$$
11584963
  -OEChem-02212016592D

 78 80  0     1  0  0  0  0  0999 V2000
    3.0778   -1.1349    0.0000 O   0  0  0  0  0  0  0  0  0  0  0  0
    5.9313   -1.7500    0.0000 O   0  0  0  0  0  0  0  0  0  0  0  0
    9.3954   -2.7500    0.0000 O   0  0  0  0  0  0  0  0  0  0  0  0
    5.9313    3.2500    0.0000 O   0  0  0  0  0  0  0  0  0  0  0  0
    7.6634    3.2500    0.0000 O   0  0  0  0  0  0  0  0  0  0  0  0
   11.9935   -0.2500    0.0000 O   0  0  0  0  0  0  0  0  0  0  0  0
   13.9422   -2.9524    0.0000 O   0  0  0  0  0  0  0  0  0  0  0  0
    2.6166    0.5864    0.0000 N   0  0  0  0  0  0  0  0  0  0  0  0
    6.7974   -0.2500    0.0000 N   0  0  0  0  0  0  0  0  0  0  0  0
    8.5294   -1.2500    0.0000 N   0  0  0  0  0  0  0  0  0  0  0  0
   11.1275   -1.7500    0.0000 N   0  0  0  0  0  0  0  0  0  0  0  0
   12.9641   -2.7445    0.0000 N   0  0  0  0  0  0  0  0  0  0  0  0
    4.1993    0.2500    0.0000 C   0  0  1  0  0  0  0  0  0  0  0  0
    4.0948    1.2445    0.0000 C   0  0  0  0  0  0  0  0  0  0  0  0
    5.0653   -0.2500    0.0000 C   0  0  0  0  0  0  0  0  0  0  0  0
    3.1166    1.4524    0.0000 C   0  0  0  0  0  0  0  0  0  0  0  0
    5.9313    0.2500    0.0000 C   0  0  1  0  0  0  0  0  0  0  0  0
    3.2857   -0.1567    0.0000 C   0  0  0  0  0  0  0  0  0  0  0  0
    5.9313    1.2500    0.0000 C   0  0  0  0  0  0  0  0  0  0  0  0
    7.6634   -1.7500    0.0000 C   0  0  2  0  0  0  0  0  0  0  0  0
    6.7974   -1.2500    0.0000 C   0  0  0  0  0  0  0  0  0  0  0  0
   10.2615   -1.2500    0.0000 C   0  0  1  0  0  0  0  0  0  0  0  0
   10.2615   -0.2500    0.0000 C   0  0  0  0  0  0  0  0  0  0  0  0
    9.3954   -1.7500    0.0000 C   0  0  0  0  0  0  0  0  0  0  0  0
    7.6634   -2.7500    0.0000 C   0  0  0  0  0  0  0  0  0  0  0  0
    6.7974    1.7500    0.0000 C   0  0  0  0  0  0  0  0  0  0  0  0
   11.1275    0.2500    0.0000 C   0  0  0  0  0  0  0  0  0  0  0  0
    9.3954    0.2500    0.0000 C   0  0  0  0  0  0  0  0  0  0  0  0
    6.7974   -3.2500    0.0000 C   0  0  0  0  0  0  0  0  0  0  0  0
    8.5294   -3.2500    0.0000 C   0  0  0  0  0  0  0  0  0  0  0  0
    6.7974    2.7500    0.0000 C   0  0  0  0  0  0  0  0  0  0  0  0
   11.9935   -1.2500    0.0000 C   0  0  0  0  0  0  0  0  0  0  0  0
    6.7974   -4.2500    0.0000 C   0  0  0  0  0  0  0  0  0  0  0  0
    8.5294   -4.2500    0.0000 C   0  0  0  0  0  0  0  0  0  0  0  0
    7.6634   -4.7500    0.0000 C   0  0  0  0  0  0  0  0  0  0  0  0
   12.8595   -1.7500    0.0000 C   0  0  0  0  0  0  0  0  0  0  0  0
   13.7731   -1.3433    0.0000 C   0  0  0  0  0  0  0  0  0  0  0  0
    5.9313    4.2500    0.0000 C   0  0  0  0  0  0  0  0  0  0  0  0
   14.4422   -2.0864    0.0000 C   0  0  0  0  0  0  0  0  0  0  0  0
    5.0653    4.7500    0.0000 C   0  0  0  0  0  0  0  0  0  0  0  0
   15.4367   -1.9819    0.0000 C   0  0  0  0  0  0  0  0  0  0  0  0
    4.1668   -0.3692    0.0000 H   0  0  0  0  0  0  0  0  0  0  0  0
    4.7148    1.2445    0.0000 H   0  0  0  0  0  0  0  0  0  0  0  0
    4.1596    1.8611    0.0000 H   0  0  0  0  0  0  0  0  0  0  0  0
    4.6668   -0.7249    0.0000 H   0  0  0  0  0  0  0  0  0  0  0  0
    5.4638   -0.7249    0.0000 H   0  0  0  0  0  0  0  0  0  0  0  0
    3.3082    2.0421    0.0000 H   0  0  0  0  0  0  0  0  0  0  0  0
    2.5502    1.7046    0.0000 H   0  0  0  0  0  0  0  0  0  0  0  0
    6.4683    0.5600    0.0000 H   0  0  0  0  0  0  0  0  0  0  0  0
    2.0000    0.5216    0.0000 H   0  0  0  0  0  0  0  0  0  0  0  0
    7.3343    0.0600    0.0000 H   0  0  0  0  0  0  0  0  0  0  0  0
    5.3944    1.5600    0.0000 H   0  0  0  0  0  0  0  0  0  0  0  0
    7.6634   -1.1300    0.0000 H   0  0  0  0  0  0  0  0  0  0  0  0
   10.2615   -1.8700    0.0000 H   0  0  0  0  0  0  0  0  0  0  0  0
   10.7984   -0.5600    0.0000 H   0  0  0  0  0  0  0  0  0  0  0  0
    8.5294   -0.6300    0.0000 H   0  0  0  0  0  0  0  0  0  0  0  0
    7.3343    1.4400    0.0000 H   0  0  0  0  0  0  0  0  0  0  0  0
   11.4375   -0.2869    0.0000 H   0  0  0  0  0  0  0  0  0  0  0  0
   11.6644    0.5600    0.0000 H   0  0  0  0  0  0  0  0  0  0  0  0
   10.8175    0.7869    0.0000 H   0  0  0  0  0  0  0  0  0  0  0  0
    9.7054    0.7869    0.0000 H   0  0  0  0  0  0  0  0  0  0  0  0
    8.8585    0.5600    0.0000 H   0  0  0  0  0  0  0  0  0  0  0  0
    9.0854   -0.2869    0.0000 H   0  0  0  0  0  0  0  0  0  0  0  0
   11.1275   -2.3700    0.0000 H   0  0  0  0  0  0  0  0  0  0  0  0
    6.2604   -2.9400    0.0000 H   0  0  0  0  0  0  0  0  0  0  0  0
    9.0663   -2.9400    0.0000 H   0  0  0  0  0  0  0  0  0  0  0  0
    6.2604   -4.5600    0.0000 H   0  0  0  0  0  0  0  0  0  0  0  0
    9.0663   -4.5600    0.0000 H   0  0  0  0  0  0  0  0  0  0  0  0
    7.6634   -5.3700    0.0000 H   0  0  0  0  0  0  0  0  0  0  0  0
   13.9020   -0.7368    0.0000 H   0  0  0  0  0  0  0  0  0  0  0  0
    6.5419    4.1423    0.0000 H   0  0  0  0  0  0  0  0  0  0  0  0
    6.1434    4.8326    0.0000 H   0  0  0  0  0  0  0  0  0  0  0  0
    5.3753    5.2869    0.0000 H   0  0  0  0  0  0  0  0  0  0  0  0
    4.5284    5.0600    0.0000 H   0  0  0  0  0  0  0  0  0  0  0  0
    4.7553    4.2131    0.0000 H   0  0  0  0  0  0  0  0  0  0  0  0
   15.5015   -2.5985    0.0000 H   0  0  0  0  0  0  0  0  0  0  0  0
   16.0533   -1.9171    0.0000 H   0  0  0  0  0  0  0  0  0  0  0  0
   15.3719   -1.3653    0.0000 H   0  0  0  0  0  0  0  0  0  0  0  0
  1 18  2  0  0  0  0
  2 21  2  0  0  0  0
  3 24  2  0  0  0  0
  4 31  1  0  0  0  0
  4 38  1  0  0  0  0
  5 31  2  0  0  0  0
  6 32  2  0  0  0  0
  7 12  1  0  0  0  0
  7 39  1  0  0  0  0
  8 16  1  0  0  0  0
  8 18  1  0  0  0  0
  8 50  1  0  0  0  0
 17  9  1  1  0  0  0
  9 21  1  0  0  0  0
  9 51  1  0  0  0  0
 20 10  1  1  0  0  0
 10 24  1  0  0  0  0
 10 56  1  0  0  0  0
 22 11  1  6  0  0  0
 11 32  1  0  0  0  0
 11 64  1  0  0  0  0
 12 36  2  0  0  0  0
 13 14  1  0  0  0  0
 13 15  1  1  0  0  0
 13 18  1  0  0  0  0
 13 42  1  0  0  0  0
 14 16  1  0  0  0  0
 14 43  1  0  0  0  0
 14 44  1  0  0  0  0
 15 17  1  0  0  0  0
 15 45  1  0  0  0  0
 15 46  1  0  0  0  0
 16 47  1  0  0  0  0
 16 48  1  0  0  0  0
 17 19  1  0  0  0  0
 17 49  1  0  0  0  0
 19 26  2  0  0  0  0
 19 52  1  0  0  0  0
 20 21  1  0  0  0  0
 20 25  1  0  0  0  0
 20 53  1  0  0  0  0
 22 23  1  0  0  0  0
 22 24  1  0  0  0  0
 22 54  1  0  0  0  0
 23 27  1  0  0  0  0
 23 28  1  0  0  0  0
 23 55  1  0  0  0  0
 25 29  2  0  0  0  0
 25 30  1  0  0  0  0
 26 31  1  0  0  0  0
 26 57  1  0  0  0  0
 27 58  1  0  0  0  0
 27 59  1  0  0  0  0
 27 60  1  0  0  0  0
 28 61  1  0  0  0  0
 28 62  1  0  0  0  0
 28 63  1  0  0  0  0
 29 33  1  0  0  0  0
 29 65  1  0  0  0  0
 30 34  2  0  0  0  0
 30 66  1  0  0  0  0
 32 36  1  0  0  0  0
 33 35  2  0  0  0  0
 33 67  1  0  0  0  0
 34 35  1  0  0  0  0
 34 68  1  0  0  0  0
 35 69  1  0  0  0  0
 36 37  1  0  0  0  0
 37 39  2  0  0  0  0
 37 70  1  0  0  0  0
 38 40  1  0  0  0  0
 38 71  1  0  0  0  0
 38 72  1  0  0  0  0
 39 41  1  0  0  0  0
 40 73  1  0  0  0  0
 40 74  1  0  0  0  0
 40 75  1  0  0  0  0
 41 76  1  0  0  0  0
 41 77  1  0  0  0  0
 41 78  1  0  0  0  0
M  END
> <PUBCHEM_COMPOUND_CID>
11584963

> <PUBCHEM_COMPOUND_CANONICALIZED>
1

> <PUBCHEM_CACTVS_COMPLEXITY>
965

> <PUBCHEM_CACTVS_HBOND_ACCEPTOR>
8

> <PUBCHEM_CACTVS_HBOND_DONOR>
4

> <PUBCHEM_CACTVS_ROTATABLE_BOND>
14

> <PUBCHEM_CACTVS_SUBSKEYS>
AAADcfB7uAAAAAAAAAAAAAAAAAAAAWLAAAAwAAAAAAAAAAABwAAAHgAUAAAADSzhngYyjJLQBACpA6XyWgCCAAAmIgAomKG+bNoIZjqAtbOWMYhmlhiI6cc/iICOAAAAAAAAAAAAAAAAAAAAAAAAAAAAAA==

> <PUBCHEM_IUPAC_OPENEYE_NAME>
ethyl (E,4S)-4-[[(2S)-2-[[(2S)-3-methyl-2-[(5-methylisoxazole-3-carbonyl)amino]butanoyl]amino]-2-phenyl-acetyl]amino]-5-[(3S)-2-oxopyrrolidin-3-yl]pent-2-enoate

> <PUBCHEM_IUPAC_CAS_NAME>
(E,4S)-4-[[(2S)-2-[[(2S)-3-methyl-2-[[(5-methyl-3-isoxazolyl)-oxomethyl]amino]-1-oxobutyl]amino]-1-oxo-2-phenylethyl]amino]-5-[(3S)-2-oxo-3-pyrrolidinyl]-2-pentenoic acid ethyl ester

> <PUBCHEM_IUPAC_NAME_MARKUP>
ethyl (<I>E</I>,4<I>S</I>)-4-[[(2<I>S</I>)-2-[[(2<I>S</I>)-3-methyl-2-[(5-methyl-1,2-oxazole-3-carbonyl)amino]butanoyl]amino]-2-phenylacetyl]amino]-5-[(3<I>S</I>)-2-oxopyrrolidin-3-yl]pent-2-enoate

> <PUBCHEM_IUPAC_NAME>
ethyl (E,4S)-4-[[(2S)-2-[[(2S)-3-methyl-2-[(5-methyl-1,2-oxazole-3-carbonyl)amino]butanoyl]amino]-2-phenylacetyl]amino]-5-[(3S)-2-oxopyrrolidin-3-yl]pent-2-enoate

> <PUBCHEM_IUPAC_SYSTEMATIC_NAME>
ethyl (E,4S)-4-[[(2S)-2-[[(2S)-3-methyl-2-[(5-methyl-1,2-oxazol-3-yl)carbonylamino]butanoyl]amino]-2-phenyl-ethanoyl]amino]-5-[(3S)-2-oxidanylidenepyrrolidin-3-yl]pent-2-enoate

> <PUBCHEM_IUPAC_TRADITIONAL_NAME>
(E,4S)-5-[(3S)-2-ketopyrrolidin-3-yl]-4-[[(2S)-2-[[(2S)-3-methyl-2-[(5-methylisoxazole-3-carbonyl)amino]butanoyl]amino]-2-phenyl-acetyl]amino]pent-2-enoic acid ethyl ester

> <PUBCHEM_IUPAC_INCHI>
InChI=1S/C29H37N5O7/c1-5-40-23(35)12-11-21(16-20-13-14-30-26(20)36)31-29(39)25(19-9-7-6-8-10-19)33-28(38)24(17(2)3)32-27(37)22-15-18(4)41-34-22/h6-12,15,17,20-21,24-25H,5,13-14,16H2,1-4H3,(H,30,36)(H,31,39)(H,32,37)(H,33,38)/b12-11+/t20-,21+,24-,25-/m0/s1

> <PUBCHEM_IUPAC_INCHIKEY>
JKTZVLAMBYJXGN-RECMVQNQSA-N

> <PUBCHEM_XLOGP3_AA>
2.5

> <PUBCHEM_EXACT_MASS>
567.269299

> <PUBCHEM_MOLECULAR_FORMULA>
C29H37N5O7

> <PUBCHEM_MOLECULAR_WEIGHT>
567.6

> <PUBCHEM_OPENEYE_CAN_SMILES>
CCOC(=O)C=CC(CC1CCNC1=O)NC(=O)C(C2=CC=CC=C2)NC(=O)C(C(C)C)NC(=O)C3=NOC(=C3)C

> <PUBCHEM_OPENEYE_ISO_SMILES>
CCOC(=O)/C=C/[C@H](C[C@@H]1CCNC1=O)NC(=O)[C@H](C2=CC=CC=C2)NC(=O)[C@H](C(C)C)NC(=O)C3=NOC(=C3)C

> <PUBCHEM_CACTVS_TPSA>
169

> <PUBCHEM_MONOISOTOPIC_WEIGHT>
567.269299

> <PUBCHEM_TOTAL_CHARGE>
0

> <PUBCHEM_HEAVY_ATOM_COUNT>
41

> <PUBCHEM_ATOM_DEF_STEREO_COUNT>
4

> <PUBCHEM_ATOM_UDEF_STEREO_COUNT>
0

> <PUBCHEM_BOND_DEF_STEREO_COUNT>
1

> <PUBCHEM_BOND_UDEF_STEREO_COUNT>
0

> <PUBCHEM_ISOTOPIC_ATOM_COUNT>
0

> <PUBCHEM_COMPONENT_COUNT>
1

> <PUBCHEM_CACTVS_TAUTO_COUNT>
-1

> <PUBCHEM_COORDINATE_TYPE>
1
5
255

> <PUBCHEM_BONDANNOTATIONS>
20  10  5
22  11  6
12  36  8
13  15  5
25  29  8
25  30  8
29  33  8
30  34  8
33  35  8
34  35  8
36  37  8
37  39  8
7  12  8
7  39  8
17  9  5

$$$$
11599683
  -OEChem-02212016592D

 82 84  0     1  0  0  0  0  0999 V2000
    5.4641   -5.2702    0.0000 F   0  0  0  0  0  0  0  0  0  0  0  0
    8.0902    3.5086    0.0000 O   0  0  0  0  0  0  0  0  0  0  0  0
    7.1962    0.7298    0.0000 O   0  0  0  0  0  0  0  0  0  0  0  0
    8.0622    0.2298    0.0000 O   0  0  0  0  0  0  0  0  0  0  0  0
    2.8660    3.2298    0.0000 O   0  0  0  0  0  0  0  0  0  0  0  0
   10.6603   -2.2702    0.0000 O   0  0  0  0  0  0  0  0  0  0  0  0
    2.0000    1.7298    0.0000 O   0  0  0  0  0  0  0  0  0  0  0  0
   12.6090    0.4322    0.0000 O   0  0  0  0  0  0  0  0  0  0  0  0
    6.8301    4.7686    0.0000 N   0  0  0  0  0  0  0  0  0  0  0  0
    5.4641    0.7298    0.0000 N   0  0  0  0  0  0  0  0  0  0  0  0
    9.7942   -0.7702    0.0000 N   0  0  0  0  0  0  0  0  0  0  0  0
   11.6308    0.2243    0.0000 N   0  0  0  0  0  0  0  0  0  0  0  0
    6.3301    3.2298    0.0000 C   0  0  3  0  0  0  0  0  0  0  0  0
    6.3301    2.2298    0.0000 C   0  0  0  0  0  0  0  0  0  0  0  0
    5.5211    3.8176    0.0000 C   0  0  0  0  0  0  0  0  0  0  0  0
    5.4641    1.7298    0.0000 C   0  0  1  0  0  0  0  0  0  0  0  0
    5.8301    4.7686    0.0000 C   0  0  0  0  0  0  0  0  0  0  0  0
    7.1391    3.8176    0.0000 C   0  0  0  0  0  0  0  0  0  0  0  0
    6.3301   -0.7702    0.0000 C   0  0  2  0  0  0  0  0  0  0  0  0
    7.1962   -1.2702    0.0000 C   0  0  0  0  0  0  0  0  0  0  0  0
    6.3301    0.2298    0.0000 C   0  0  0  0  0  0  0  0  0  0  0  0
    8.9282   -1.2702    0.0000 C   0  0  1  0  0  0  0  0  0  0  0  0
    5.4641   -1.2702    0.0000 C   0  0  0  0  0  0  0  0  0  0  0  0
    8.9282   -2.2702    0.0000 C   0  0  0  0  0  0  0  0  0  0  0  0
    8.0622   -0.7702    0.0000 C   0  0  0  0  0  0  0  0  0  0  0  0
    4.5981    2.2298    0.0000 C   0  0  0  0  0  0  0  0  0  0  0  0
    5.4641   -2.2702    0.0000 C   0  0  0  0  0  0  0  0  0  0  0  0
    9.7942   -2.7702    0.0000 C   0  0  0  0  0  0  0  0  0  0  0  0
    8.0622   -2.7702    0.0000 C   0  0  0  0  0  0  0  0  0  0  0  0
    3.7320    1.7298    0.0000 C   0  0  0  0  0  0  0  0  0  0  0  0
    6.3301   -2.7702    0.0000 C   0  0  0  0  0  0  0  0  0  0  0  0
    4.5981   -2.7702    0.0000 C   0  0  0  0  0  0  0  0  0  0  0  0
   10.6603   -1.2702    0.0000 C   0  0  0  0  0  0  0  0  0  0  0  0
    2.8660    2.2298    0.0000 C   0  0  0  0  0  0  0  0  0  0  0  0
    6.3301   -3.7702    0.0000 C   0  0  0  0  0  0  0  0  0  0  0  0
    4.5981   -3.7702    0.0000 C   0  0  0  0  0  0  0  0  0  0  0  0
   11.5263   -0.7702    0.0000 C   0  0  0  0  0  0  0  0  0  0  0  0
    5.4641   -4.2702    0.0000 C   0  0  0  0  0  0  0  0  0  0  0  0
   12.4398   -1.1770    0.0000 C   0  0  0  0  0  0  0  0  0  0  0  0
   13.1090   -0.4338    0.0000 C   0  0  0  0  0  0  0  0  0  0  0  0
    2.0000    3.7298    0.0000 C   0  0  0  0  0  0  0  0  0  0  0  0
   14.1035   -0.5383    0.0000 C   0  0  0  0  0  0  0  0  0  0  0  0
    2.0000    4.7298    0.0000 C   0  0  0  0  0  0  0  0  0  0  0  0
    6.8826    2.9483    0.0000 H   0  0  0  0  0  0  0  0  0  0  0  0
    6.5422    1.6472    0.0000 H   0  0  0  0  0  0  0  0  0  0  0  0
    6.9407    2.3374    0.0000 H   0  0  0  0  0  0  0  0  0  0  0  0
    4.9547    4.0698    0.0000 H   0  0  0  0  0  0  0  0  0  0  0  0
    5.2111    3.2806    0.0000 H   0  0  0  0  0  0  0  0  0  0  0  0
    6.0010    1.4198    0.0000 H   0  0  0  0  0  0  0  0  0  0  0  0
    5.8949    5.3852    0.0000 H   0  0  0  0  0  0  0  0  0  0  0  0
    5.2237    4.8975    0.0000 H   0  0  0  0  0  0  0  0  0  0  0  0
    6.8671   -0.4602    0.0000 H   0  0  0  0  0  0  0  0  0  0  0  0
    7.1946    5.2702    0.0000 H   0  0  0  0  0  0  0  0  0  0  0  0
    4.9272    0.4198    0.0000 H   0  0  0  0  0  0  0  0  0  0  0  0
    6.7976   -1.7452    0.0000 H   0  0  0  0  0  0  0  0  0  0  0  0
    7.5947   -1.7452    0.0000 H   0  0  0  0  0  0  0  0  0  0  0  0
    8.9282   -0.6502    0.0000 H   0  0  0  0  0  0  0  0  0  0  0  0
    5.2520   -0.6876    0.0000 H   0  0  0  0  0  0  0  0  0  0  0  0
    4.8535   -1.3779    0.0000 H   0  0  0  0  0  0  0  0  0  0  0  0
    9.4651   -1.9602    0.0000 H   0  0  0  0  0  0  0  0  0  0  0  0
    4.5981    2.8498    0.0000 H   0  0  0  0  0  0  0  0  0  0  0  0
    9.7942   -0.1502    0.0000 H   0  0  0  0  0  0  0  0  0  0  0  0
    9.4842   -3.3072    0.0000 H   0  0  0  0  0  0  0  0  0  0  0  0
   10.3312   -3.0802    0.0000 H   0  0  0  0  0  0  0  0  0  0  0  0
   10.1042   -2.2333    0.0000 H   0  0  0  0  0  0  0  0  0  0  0  0
    7.7522   -2.2333    0.0000 H   0  0  0  0  0  0  0  0  0  0  0  0
    7.5252   -3.0802    0.0000 H   0  0  0  0  0  0  0  0  0  0  0  0
    8.3722   -3.3072    0.0000 H   0  0  0  0  0  0  0  0  0  0  0  0
    3.7320    1.1098    0.0000 H   0  0  0  0  0  0  0  0  0  0  0  0
    6.8671   -2.4602    0.0000 H   0  0  0  0  0  0  0  0  0  0  0  0
    4.0611   -2.4602    0.0000 H   0  0  0  0  0  0  0  0  0  0  0  0
    6.8671   -4.0802    0.0000 H   0  0  0  0  0  0  0  0  0  0  0  0
    4.0611   -4.0802    0.0000 H   0  0  0  0  0  0  0  0  0  0  0  0
   12.5687   -1.7834    0.0000 H   0  0  0  0  0  0  0  0  0  0  0  0
    1.3894    3.8374    0.0000 H   0  0  0  0  0  0  0  0  0  0  0  0
    1.7880    3.1472    0.0000 H   0  0  0  0  0  0  0  0  0  0  0  0
   14.0387   -1.1549    0.0000 H   0  0  0  0  0  0  0  0  0  0  0  0
   14.7201   -0.6031    0.0000 H   0  0  0  0  0  0  0  0  0  0  0  0
   14.1683    0.0783    0.0000 H   0  0  0  0  0  0  0  0  0  0  0  0
    2.6200    4.7298    0.0000 H   0  0  0  0  0  0  0  0  0  0  0  0
    2.0000    5.3498    0.0000 H   0  0  0  0  0  0  0  0  0  0  0  0
    1.3800    4.7298    0.0000 H   0  0  0  0  0  0  0  0  0  0  0  0
  1 38  1  0  0  0  0
  2 18  2  0  0  0  0
  3 21  2  0  0  0  0
  4 25  2  0  0  0  0
  5 34  1  0  0  0  0
  5 41  1  0  0  0  0
  6 33  2  0  0  0  0
  7 34  2  0  0  0  0
  8 12  1  0  0  0  0
  8 40  1  0  0  0  0
  9 17  1  0  0  0  0
  9 18  1  0  0  0  0
  9 53  1  0  0  0  0
 16 10  1  6  0  0  0
 10 21  1  0  0  0  0
 10 54  1  0  0  0  0
 22 11  1  1  0  0  0
 11 33  1  0  0  0  0
 11 62  1  0  0  0  0
 12 37  2  0  0  0  0
 13 14  1  0  0  0  0
 13 15  1  0  0  0  0
 13 18  1  0  0  0  0
 13 44  1  0  0  0  0
 14 16  1  0  0  0  0
 14 45  1  0  0  0  0
 14 46  1  0  0  0  0
 15 17  1  0  0  0  0
 15 47  1  0  0  0  0
 15 48  1  0  0  0  0
 16 26  1  0  0  0  0
 16 49  1  0  0  0  0
 17 50  1  0  0  0  0
 17 51  1  0  0  0  0
 19 20  1  1  0  0  0
 19 21  1  0  0  0  0
 19 23  1  0  0  0  0
 19 52  1  0  0  0  0
 20 25  1  0  0  0  0
 20 55  1  0  0  0  0
 20 56  1  0  0  0  0
 22 24  1  0  0  0  0
 22 25  1  0  0  0  0
 22 57  1  0  0  0  0
 23 27  1  0  0  0  0
 23 58  1  0  0  0  0
 23 59  1  0  0  0  0
 24 28  1  0  0  0  0
 24 29  1  0  0  0  0
 24 60  1  0  0  0  0
 26 30  2  0  0  0  0
 26 61  1  0  0  0  0
 27 31  2  0  0  0  0
 27 32  1  0  0  0  0
 28 63  1  0  0  0  0
 28 64  1  0  0  0  0
 28 65  1  0  0  0  0
 29 66  1  0  0  0  0
 29 67  1  0  0  0  0
 29 68  1  0  0  0  0
 30 34  1  0  0  0  0
 30 69  1  0  0  0  0
 31 35  1  0  0  0  0
 31 70  1  0  0  0  0
 32 36  2  0  0  0  0
 32 71  1  0  0  0  0
 33 37  1  0  0  0  0
 35 38  2  0  0  0  0
 35 72  1  0  0  0  0
 36 38  1  0  0  0  0
 36 73  1  0  0  0  0
 37 39  1  0  0  0  0
 39 40  2  0  0  0  0
 39 74  1  0  0  0  0
 40 42  1  0  0  0  0
 41 43  1  0  0  0  0
 41 75  1  0  0  0  0
 41 76  1  0  0  0  0
 42 77  1  0  0  0  0
 42 78  1  0  0  0  0
 42 79  1  0  0  0  0
 43 80  1  0  0  0  0
 43 81  1  0  0  0  0
 43 82  1  0  0  0  0
M  END
> <PUBCHEM_COMPOUND_CID>
11599683

> <PUBCHEM_COMPOUND_CANONICALIZED>
1

> <PUBCHEM_CACTVS_COMPLEXITY>
1010

> <PUBCHEM_CACTVS_HBOND_ACCEPTOR>
9

> <PUBCHEM_CACTVS_HBOND_DONOR>
3

> <PUBCHEM_CACTVS_ROTATABLE_BOND>
16

> <PUBCHEM_CACTVS_SUBSKEYS>
AAADcfB7uQAAAAAAAAAAAAAAAAAAAWLAAAAwAAAAAAAAAAABwAAAHwAUAAAADSzhng4yjJLQBACpA6XyWgCCAAAmIgAomKG+bNoIZjqAtbOWMYhmlhiI6cc/icCeAAAAAAAAAAAAAAAAAAAAAAAAAAAAAA==

> <PUBCHEM_IUPAC_OPENEYE_NAME>
ethyl (E,4S)-4-[[(2R,5S)-2-[(4-fluorophenyl)methyl]-6-methyl-5-[(5-methylisoxazole-3-carbonyl)amino]-4-oxo-heptanoyl]amino]-5-(2-oxopyrrolidin-3-yl)pent-2-enoate

> <PUBCHEM_IUPAC_CAS_NAME>
(E,4S)-4-[[(2R,5S)-2-[(4-fluorophenyl)methyl]-6-methyl-5-[[(5-methyl-3-isoxazolyl)-oxomethyl]amino]-1,4-dioxoheptyl]amino]-5-(2-oxo-3-pyrrolidinyl)-2-pentenoic acid ethyl ester

> <PUBCHEM_IUPAC_NAME_MARKUP>
ethyl (<I>E</I>,4<I>S</I>)-4-[[(2<I>R</I>,5<I>S</I>)-2-[(4-fluorophenyl)methyl]-6-methyl-5-[(5-methyl-1,2-oxazole-3-carbonyl)amino]-4-oxoheptanoyl]amino]-5-(2-oxopyrrolidin-3-yl)pent-2-enoate

> <PUBCHEM_IUPAC_NAME>
ethyl (E,4S)-4-[[(2R,5S)-2-[(4-fluorophenyl)methyl]-6-methyl-5-[(5-methyl-1,2-oxazole-3-carbonyl)amino]-4-oxoheptanoyl]amino]-5-(2-oxopyrrolidin-3-yl)pent-2-enoate

> <PUBCHEM_IUPAC_SYSTEMATIC_NAME>
ethyl (E,4S)-4-[[(2R,5S)-2-[(4-fluorophenyl)methyl]-6-methyl-5-[(5-methyl-1,2-oxazol-3-yl)carbonylamino]-4-oxidanylidene-heptanoyl]amino]-5-(2-oxidanylidenepyrrolidin-3-yl)pent-2-enoate

> <PUBCHEM_IUPAC_TRADITIONAL_NAME>
(E,4S)-4-[[(2R,5S)-2-(4-fluorobenzyl)-4-keto-6-methyl-5-[(5-methylisoxazole-3-carbonyl)amino]heptanoyl]amino]-5-(2-ketopyrrolidin-3-yl)pent-2-enoic acid ethyl ester

> <PUBCHEM_IUPAC_INCHI>
InChI=1S/C31H39FN4O7/c1-5-42-27(38)11-10-24(16-21-12-13-33-29(21)39)34-30(40)22(15-20-6-8-23(32)9-7-20)17-26(37)28(18(2)3)35-31(41)25-14-19(4)43-36-25/h6-11,14,18,21-22,24,28H,5,12-13,15-17H2,1-4H3,(H,33,39)(H,34,40)(H,35,41)/b11-10+/t21?,22-,24-,28+/m1/s1

> <PUBCHEM_IUPAC_INCHIKEY>
CAYJBRBGZBCZKO-XVAJWODFSA-N

> <PUBCHEM_XLOGP3_AA>
3.1

> <PUBCHEM_EXACT_MASS>
598.280278

> <PUBCHEM_MOLECULAR_FORMULA>
C31H39FN4O7

> <PUBCHEM_MOLECULAR_WEIGHT>
598.7

> <PUBCHEM_OPENEYE_CAN_SMILES>
CCOC(=O)C=CC(CC1CCNC1=O)NC(=O)C(CC2=CC=C(C=C2)F)CC(=O)C(C(C)C)NC(=O)C3=NOC(=C3)C

> <PUBCHEM_OPENEYE_ISO_SMILES>
CCOC(=O)/C=C/[C@H](CC1CCNC1=O)NC(=O)[C@H](CC2=CC=C(C=C2)F)CC(=O)[C@H](C(C)C)NC(=O)C3=NOC(=C3)C

> <PUBCHEM_CACTVS_TPSA>
157

> <PUBCHEM_MONOISOTOPIC_WEIGHT>
598.280278

> <PUBCHEM_TOTAL_CHARGE>
0

> <PUBCHEM_HEAVY_ATOM_COUNT>
43

> <PUBCHEM_ATOM_DEF_STEREO_COUNT>
3

> <PUBCHEM_ATOM_UDEF_STEREO_COUNT>
1

> <PUBCHEM_BOND_DEF_STEREO_COUNT>
1

> <PUBCHEM_BOND_UDEF_STEREO_COUNT>
0

> <PUBCHEM_ISOTOPIC_ATOM_COUNT>
0

> <PUBCHEM_COMPONENT_COUNT>
1

> <PUBCHEM_CACTVS_TAUTO_COUNT>
-1

> <PUBCHEM_COORDINATE_TYPE>
1
5
255

> <PUBCHEM_BONDANNOTATIONS>
16  10  6
22  11  5
12  37  8
13  14  3
19  20  5
27  31  8
27  32  8
31  35  8
32  36  8
35  38  8
36  38  8
37  39  8
39  40  8
8  12  8
8  40  8

$$$$
11600043
  -OEChem-02212016592D

 97 99  0     1  0  0  0  0  0999 V2000
   15.0964   -0.6929    0.0000 O   0  0  0  0  0  0  0  0  0  0  0  0
   10.5109    1.6920    0.0000 O   0  0  0  0  0  0  0  0  0  0  0  0
    9.6448    2.1920    0.0000 O   0  0  0  0  0  0  0  0  0  0  0  0
   10.5109   -2.3080    0.0000 O   0  0  0  0  0  0  0  0  0  0  0  0
    7.0468    4.6920    0.0000 O   0  0  0  0  0  0  0  0  0  0  0  0
    9.6448   -0.8080    0.0000 O   0  0  0  0  0  0  0  0  0  0  0  0
    4.4487    2.1920    0.0000 O   0  0  0  0  0  0  0  0  0  0  0  0
    2.0000    4.0284    0.0000 O   0  0  0  0  0  0  0  0  0  0  0  0
   15.5577    1.0284    0.0000 N   0  0  0  0  0  0  0  0  0  0  0  0
   12.2429    1.6920    0.0000 N   0  0  0  0  0  0  0  0  0  0  0  0
   10.5109    3.6920    0.0000 N   0  0  0  0  0  0  0  0  0  0  0  0
    7.9128    3.1920    0.0000 N   0  0  0  0  0  0  0  0  0  0  0  0
    5.3147    3.6920    0.0000 N   0  0  0  0  0  0  0  0  0  0  0  0
    2.6691    3.2853    0.0000 N   0  0  0  0  0  0  0  0  0  0  0  0
   13.9750    0.6920    0.0000 C   0  0  3  0  0  0  0  0  0  0  0  0
   13.1090    0.1920    0.0000 C   0  0  0  0  0  0  0  0  0  0  0  0
   14.0795    1.6865    0.0000 C   0  0  0  0  0  0  0  0  0  0  0  0
   12.2429    0.6920    0.0000 C   0  0  1  0  0  0  0  0  0  0  0  0
   15.0577    1.8944    0.0000 C   0  0  0  0  0  0  0  0  0  0  0  0
   14.8885    0.2853    0.0000 C   0  0  0  0  0  0  0  0  0  0  0  0
   11.3769    3.1920    0.0000 C   0  0  1  0  0  0  0  0  0  0  0  0
   12.2429    3.6920    0.0000 C   0  0  0  0  0  0  0  0  0  0  0  0
   11.3769    2.1920    0.0000 C   0  0  0  0  0  0  0  0  0  0  0  0
   12.2429    4.6920    0.0000 C   0  0  0  0  0  0  0  0  0  0  0  0
   11.3769    0.1920    0.0000 C   0  0  0  0  0  0  0  0  0  0  0  0
    8.7788    3.6920    0.0000 C   0  0  1  0  0  0  0  0  0  0  0  0
    8.7788    4.6920    0.0000 C   0  0  0  0  0  0  0  0  0  0  0  0
    9.6448    3.1920    0.0000 C   0  0  0  0  0  0  0  0  0  0  0  0
   13.1090    5.1920    0.0000 C   0  0  0  0  0  0  0  0  0  0  0  0
   11.3769    5.1920    0.0000 C   0  0  0  0  0  0  0  0  0  0  0  0
   11.3769   -0.8080    0.0000 C   0  0  0  0  0  0  0  0  0  0  0  0
    7.9128    5.1920    0.0000 C   0  0  0  0  0  0  0  0  0  0  0  0
    9.6448    5.1920    0.0000 C   0  0  0  0  0  0  0  0  0  0  0  0
    7.0468    3.6920    0.0000 C   0  0  0  0  0  0  0  0  0  0  0  0
    6.1808    3.1920    0.0000 C   0  0  2  0  0  0  0  0  0  0  0  0
   10.5109   -1.3080    0.0000 C   0  0  0  0  0  0  0  0  0  0  0  0
    6.1808    2.1920    0.0000 C   0  0  0  0  0  0  0  0  0  0  0  0
    4.4487    3.1920    0.0000 C   0  0  0  0  0  0  0  0  0  0  0  0
    9.6448   -2.8080    0.0000 C   0  0  0  0  0  0  0  0  0  0  0  0
    3.5827    3.6920    0.0000 C   0  0  0  0  0  0  0  0  0  0  0  0
    9.6448   -3.8080    0.0000 C   0  0  0  0  0  0  0  0  0  0  0  0
    3.4782    4.6865    0.0000 C   0  0  0  0  0  0  0  0  0  0  0  0
    8.7788   -4.3080    0.0000 C   0  0  0  0  0  0  0  0  0  0  0  0
   10.5109   -4.3080    0.0000 C   0  0  0  0  0  0  0  0  0  0  0  0
    2.5000    4.8944    0.0000 C   0  0  0  0  0  0  0  0  0  0  0  0
    8.7788   -5.3080    0.0000 C   0  0  0  0  0  0  0  0  0  0  0  0
   10.5109   -5.3080    0.0000 C   0  0  0  0  0  0  0  0  0  0  0  0
    9.6448   -5.8080    0.0000 C   0  0  0  0  0  0  0  0  0  0  0  0
    2.0933    5.8080    0.0000 C   0  0  0  0  0  0  0  0  0  0  0  0
   14.0074    0.0729    0.0000 H   0  0  0  0  0  0  0  0  0  0  0  0
   12.7104   -0.2829    0.0000 H   0  0  0  0  0  0  0  0  0  0  0  0
   13.5075   -0.2829    0.0000 H   0  0  0  0  0  0  0  0  0  0  0  0
   14.0147    2.3031    0.0000 H   0  0  0  0  0  0  0  0  0  0  0  0
   13.4595    1.6865    0.0000 H   0  0  0  0  0  0  0  0  0  0  0  0
   12.7799    1.0020    0.0000 H   0  0  0  0  0  0  0  0  0  0  0  0
   15.6241    2.1466    0.0000 H   0  0  0  0  0  0  0  0  0  0  0  0
   14.8661    2.4841    0.0000 H   0  0  0  0  0  0  0  0  0  0  0  0
   16.1743    0.9636    0.0000 H   0  0  0  0  0  0  0  0  0  0  0  0
   10.8400    2.8820    0.0000 H   0  0  0  0  0  0  0  0  0  0  0  0
   12.4550    3.1094    0.0000 H   0  0  0  0  0  0  0  0  0  0  0  0
   12.8535    3.7997    0.0000 H   0  0  0  0  0  0  0  0  0  0  0  0
   12.7799    2.0020    0.0000 H   0  0  0  0  0  0  0  0  0  0  0  0
   12.7799    4.3820    0.0000 H   0  0  0  0  0  0  0  0  0  0  0  0
   10.8400    0.5020    0.0000 H   0  0  0  0  0  0  0  0  0  0  0  0
    8.2419    4.0020    0.0000 H   0  0  0  0  0  0  0  0  0  0  0  0
   10.5109    4.3120    0.0000 H   0  0  0  0  0  0  0  0  0  0  0  0
    9.3158    4.3820    0.0000 H   0  0  0  0  0  0  0  0  0  0  0  0
   13.4190    4.6551    0.0000 H   0  0  0  0  0  0  0  0  0  0  0  0
   13.6459    5.5020    0.0000 H   0  0  0  0  0  0  0  0  0  0  0  0
   12.7990    5.7290    0.0000 H   0  0  0  0  0  0  0  0  0  0  0  0
   11.6869    5.7290    0.0000 H   0  0  0  0  0  0  0  0  0  0  0  0
   10.8400    5.5020    0.0000 H   0  0  0  0  0  0  0  0  0  0  0  0
   11.0669    4.6551    0.0000 H   0  0  0  0  0  0  0  0  0  0  0  0
    7.9128    2.5720    0.0000 H   0  0  0  0  0  0  0  0  0  0  0  0
   11.9138   -1.1180    0.0000 H   0  0  0  0  0  0  0  0  0  0  0  0
    8.2228    5.7290    0.0000 H   0  0  0  0  0  0  0  0  0  0  0  0
    7.3759    5.5020    0.0000 H   0  0  0  0  0  0  0  0  0  0  0  0
    7.6028    4.6551    0.0000 H   0  0  0  0  0  0  0  0  0  0  0  0
    9.9548    4.6551    0.0000 H   0  0  0  0  0  0  0  0  0  0  0  0
   10.1818    5.5020    0.0000 H   0  0  0  0  0  0  0  0  0  0  0  0
    9.3348    5.7290    0.0000 H   0  0  0  0  0  0  0  0  0  0  0  0
    6.1808    3.8120    0.0000 H   0  0  0  0  0  0  0  0  0  0  0  0
    5.5608    2.1920    0.0000 H   0  0  0  0  0  0  0  0  0  0  0  0
    6.1808    1.5720    0.0000 H   0  0  0  0  0  0  0  0  0  0  0  0
    6.8008    2.1920    0.0000 H   0  0  0  0  0  0  0  0  0  0  0  0
    5.3147    4.3120    0.0000 H   0  0  0  0  0  0  0  0  0  0  0  0
    9.4328   -2.2254    0.0000 H   0  0  0  0  0  0  0  0  0  0  0  0
    9.0343   -2.9156    0.0000 H   0  0  0  0  0  0  0  0  0  0  0  0
    3.9389    5.1014    0.0000 H   0  0  0  0  0  0  0  0  0  0  0  0
    8.2419   -3.9980    0.0000 H   0  0  0  0  0  0  0  0  0  0  0  0
   11.0478   -3.9980    0.0000 H   0  0  0  0  0  0  0  0  0  0  0  0
    8.2419   -5.6180    0.0000 H   0  0  0  0  0  0  0  0  0  0  0  0
   11.0478   -5.6180    0.0000 H   0  0  0  0  0  0  0  0  0  0  0  0
    9.6448   -6.4280    0.0000 H   0  0  0  0  0  0  0  0  0  0  0  0
    2.6597    6.0602    0.0000 H   0  0  0  0  0  0  0  0  0  0  0  0
    1.8411    6.3744    0.0000 H   0  0  0  0  0  0  0  0  0  0  0  0
    1.5269    5.5558    0.0000 H   0  0  0  0  0  0  0  0  0  0  0  0
  1 20  2  0  0  0  0
  2 23  2  0  0  0  0
  3 28  2  0  0  0  0
  4 36  1  0  0  0  0
  4 39  1  0  0  0  0
  5 34  2  0  0  0  0
  6 36  2  0  0  0  0
  7 38  2  0  0  0  0
  8 14  1  0  0  0  0
  8 45  1  0  0  0  0
  9 19  1  0  0  0  0
  9 20  1  0  0  0  0
  9 58  1  0  0  0  0
 18 10  1  1  0  0  0
 10 23  1  0  0  0  0
 10 62  1  0  0  0  0
 21 11  1  1  0  0  0
 11 28  1  0  0  0  0
 11 66  1  0  0  0  0
 26 12  1  1  0  0  0
 12 34  1  0  0  0  0
 12 74  1  0  0  0  0
 35 13  1  6  0  0  0
 13 38  1  0  0  0  0
 13 86  1  0  0  0  0
 14 40  2  0  0  0  0
 15 16  1  0  0  0  0
 15 17  1  0  0  0  0
 15 20  1  0  0  0  0
 15 50  1  0  0  0  0
 16 18  1  0  0  0  0
 16 51  1  0  0  0  0
 16 52  1  0  0  0  0
 17 19  1  0  0  0  0
 17 53  1  0  0  0  0
 17 54  1  0  0  0  0
 18 25  1  0  0  0  0
 18 55  1  0  0  0  0
 19 56  1  0  0  0  0
 19 57  1  0  0  0  0
 21 22  1  0  0  0  0
 21 23  1  0  0  0  0
 21 59  1  0  0  0  0
 22 24  1  0  0  0  0
 22 60  1  0  0  0  0
 22 61  1  0  0  0  0
 24 29  1  0  0  0  0
 24 30  1  0  0  0  0
 24 63  1  0  0  0  0
 25 31  2  0  0  0  0
 25 64  1  0  0  0  0
 26 27  1  0  0  0  0
 26 28  1  0  0  0  0
 26 65  1  0  0  0  0
 27 32  1  0  0  0  0
 27 33  1  0  0  0  0
 27 67  1  0  0  0  0
 29 68  1  0  0  0  0
 29 69  1  0  0  0  0
 29 70  1  0  0  0  0
 30 71  1  0  0  0  0
 30 72  1  0  0  0  0
 30 73  1  0  0  0  0
 31 36  1  0  0  0  0
 31 75  1  0  0  0  0
 32 76  1  0  0  0  0
 32 77  1  0  0  0  0
 32 78  1  0  0  0  0
 33 79  1  0  0  0  0
 33 80  1  0  0  0  0
 33 81  1  0  0  0  0
 34 35  1  0  0  0  0
 35 37  1  0  0  0  0
 35 82  1  0  0  0  0
 37 83  1  0  0  0  0
 37 84  1  0  0  0  0
 37 85  1  0  0  0  0
 38 40  1  0  0  0  0
 39 41  1  0  0  0  0
 39 87  1  0  0  0  0
 39 88  1  0  0  0  0
 40 42  1  0  0  0  0
 41 43  2  0  0  0  0
 41 44  1  0  0  0  0
 42 45  2  0  0  0  0
 42 89  1  0  0  0  0
 43 46  1  0  0  0  0
 43 90  1  0  0  0  0
 44 47  2  0  0  0  0
 44 91  1  0  0  0  0
 45 49  1  0  0  0  0
 46 48  2  0  0  0  0
 46 92  1  0  0  0  0
 47 48  1  0  0  0  0
 47 93  1  0  0  0  0
 48 94  1  0  0  0  0
 49 95  1  0  0  0  0
 49 96  1  0  0  0  0
 49 97  1  0  0  0  0
M  END
> <PUBCHEM_COMPOUND_CID>
11600043

> <PUBCHEM_COMPOUND_CANONICALIZED>
1

> <PUBCHEM_CACTVS_COMPLEXITY>
1190

> <PUBCHEM_CACTVS_HBOND_ACCEPTOR>
9

> <PUBCHEM_CACTVS_HBOND_DONOR>
5

> <PUBCHEM_CACTVS_ROTATABLE_BOND>
18

> <PUBCHEM_CACTVS_SUBSKEYS>
AAADcfB/vAAAAAAAAAAAAAAAAAAAAWLAAAAwAAAAAAAAAAABwAAAHgAUAAAADSzhngYyjJLQBACpA6XyWgCCAAAmIgAomKG+bNoIZjqAtbuWMYhm1hmI6ce/wCAOAAAAAAAAAAAAAAAAAAAAAAAAAAAAAA==

> <PUBCHEM_IUPAC_OPENEYE_NAME>
benzyl (E,4S)-4-[[(2S)-4-methyl-2-[[(2S)-3-methyl-2-[[(2S)-2-[(5-methylisoxazole-3-carbonyl)amino]propanoyl]amino]butanoyl]amino]pentanoyl]amino]-5-(2-oxopyrrolidin-3-yl)pent-2-enoate

> <PUBCHEM_IUPAC_CAS_NAME>
(E,4S)-4-[[(2S)-4-methyl-2-[[(2S)-3-methyl-2-[[(2S)-2-[[(5-methyl-3-isoxazolyl)-oxomethyl]amino]-1-oxopropyl]amino]-1-oxobutyl]amino]-1-oxopentyl]amino]-5-(2-oxo-3-pyrrolidinyl)-2-pentenoic acid (phenylmethyl) ester

> <PUBCHEM_IUPAC_NAME_MARKUP>
benzyl (<I>E</I>,4<I>S</I>)-4-[[(2<I>S</I>)-4-methyl-2-[[(2<I>S</I>)-3-methyl-2-[[(2<I>S</I>)-2-[(5-methyl-1,2-oxazole-3-carbonyl)amino]propanoyl]amino]butanoyl]amino]pentanoyl]amino]-5-(2-oxopyrrolidin-3-yl)pent-2-enoate

> <PUBCHEM_IUPAC_NAME>
benzyl (E,4S)-4-[[(2S)-4-methyl-2-[[(2S)-3-methyl-2-[[(2S)-2-[(5-methyl-1,2-oxazole-3-carbonyl)amino]propanoyl]amino]butanoyl]amino]pentanoyl]amino]-5-(2-oxopyrrolidin-3-yl)pent-2-enoate

> <PUBCHEM_IUPAC_SYSTEMATIC_NAME>
(phenylmethyl) (E,4S)-4-[[(2S)-4-methyl-2-[[(2S)-3-methyl-2-[[(2S)-2-[(5-methyl-1,2-oxazol-3-yl)carbonylamino]propanoyl]amino]butanoyl]amino]pentanoyl]amino]-5-(2-oxidanylidenepyrrolidin-3-yl)pent-2-enoate

> <PUBCHEM_IUPAC_TRADITIONAL_NAME>
(E,4S)-5-(2-ketopyrrolidin-3-yl)-4-[[(2S)-4-methyl-2-[[(2S)-3-methyl-2-[[(2S)-2-[(5-methylisoxazole-3-carbonyl)amino]propanoyl]amino]butanoyl]amino]pentanoyl]amino]pent-2-enoic acid benzyl ester

> <PUBCHEM_IUPAC_INCHI>
InChI=1S/C35H48N6O8/c1-20(2)16-27(39-35(47)30(21(3)4)40-31(43)23(6)37-34(46)28-17-22(5)49-41-28)33(45)38-26(18-25-14-15-36-32(25)44)12-13-29(42)48-19-24-10-8-7-9-11-24/h7-13,17,20-21,23,25-27,30H,14-16,18-19H2,1-6H3,(H,36,44)(H,37,46)(H,38,45)(H,39,47)(H,40,43)/b13-12+/t23-,25?,26+,27-,30-/m0/s1

> <PUBCHEM_IUPAC_INCHIKEY>
IDBWWEGDLCFCTD-RGUNBSALSA-N

> <PUBCHEM_XLOGP3_AA>
3.4

> <PUBCHEM_EXACT_MASS>
680.353363

> <PUBCHEM_MOLECULAR_FORMULA>
C35H48N6O8

> <PUBCHEM_MOLECULAR_WEIGHT>
680.8

> <PUBCHEM_OPENEYE_CAN_SMILES>
CC1=CC(=NO1)C(=O)NC(C)C(=O)NC(C(C)C)C(=O)NC(CC(C)C)C(=O)NC(CC2CCNC2=O)C=CC(=O)OCC3=CC=CC=C3

> <PUBCHEM_OPENEYE_ISO_SMILES>
CC1=CC(=NO1)C(=O)N[C@@H](C)C(=O)N[C@@H](C(C)C)C(=O)N[C@@H](CC(C)C)C(=O)N[C@@H](CC2CCNC2=O)/C=C/C(=O)OCC3=CC=CC=C3

> <PUBCHEM_CACTVS_TPSA>
198

> <PUBCHEM_MONOISOTOPIC_WEIGHT>
680.353363

> <PUBCHEM_TOTAL_CHARGE>
0

> <PUBCHEM_HEAVY_ATOM_COUNT>
49

> <PUBCHEM_ATOM_DEF_STEREO_COUNT>
4

> <PUBCHEM_ATOM_UDEF_STEREO_COUNT>
1

> <PUBCHEM_BOND_DEF_STEREO_COUNT>
1

> <PUBCHEM_BOND_UDEF_STEREO_COUNT>
0

> <PUBCHEM_ISOTOPIC_ATOM_COUNT>
0

> <PUBCHEM_COMPONENT_COUNT>
1

> <PUBCHEM_CACTVS_TAUTO_COUNT>
-1

> <PUBCHEM_COORDINATE_TYPE>
1
5
255

> <PUBCHEM_BONDANNOTATIONS>
18  10  5
21  11  5
26  12  5
35  13  6
14  40  8
15  16  3
40  42  8
41  43  8
41  44  8
42  45  8
43  46  8
44  47  8
46  48  8
47  48  8
8  14  8
8  45  8

$$$$
11642725
  -OEChem-02212016592D

 82 84  0     1  0  0  0  0  0999 V2000
    8.0902    3.0086    0.0000 O   0  0  0  0  0  0  0  0  0  0  0  0
    7.1962    0.2298    0.0000 O   0  0  0  0  0  0  0  0  0  0  0  0
    8.0622   -0.2702    0.0000 O   0  0  0  0  0  0  0  0  0  0  0  0
    2.8660    2.7298    0.0000 O   0  0  0  0  0  0  0  0  0  0  0  0
   10.6603   -2.7702    0.0000 O   0  0  0  0  0  0  0  0  0  0  0  0
    2.0000    1.2298    0.0000 O   0  0  0  0  0  0  0  0  0  0  0  0
   12.6090   -0.0678    0.0000 O   0  0  0  0  0  0  0  0  0  0  0  0
    6.8301    4.2686    0.0000 N   0  0  0  0  0  0  0  0  0  0  0  0
    5.4641    0.2298    0.0000 N   0  0  0  0  0  0  0  0  0  0  0  0
    9.7942   -1.2702    0.0000 N   0  0  0  0  0  0  0  0  0  0  0  0
   11.6308   -0.2757    0.0000 N   0  0  0  0  0  0  0  0  0  0  0  0
    6.3301    2.7298    0.0000 C   0  0  2  0  0  0  0  0  0  0  0  0
    6.3301    1.7298    0.0000 C   0  0  0  0  0  0  0  0  0  0  0  0
    5.5211    3.3176    0.0000 C   0  0  0  0  0  0  0  0  0  0  0  0
    5.4641    1.2298    0.0000 C   0  0  1  0  0  0  0  0  0  0  0  0
    5.8301    4.2686    0.0000 C   0  0  0  0  0  0  0  0  0  0  0  0
    7.1391    3.3176    0.0000 C   0  0  0  0  0  0  0  0  0  0  0  0
    6.3301   -1.2702    0.0000 C   0  0  2  0  0  0  0  0  0  0  0  0
    7.1962   -1.7702    0.0000 C   0  0  0  0  0  0  0  0  0  0  0  0
    6.3301   -0.2702    0.0000 C   0  0  0  0  0  0  0  0  0  0  0  0
    8.9282   -1.7702    0.0000 C   0  0  1  0  0  0  0  0  0  0  0  0
    5.4641   -1.7702    0.0000 C   0  0  0  0  0  0  0  0  0  0  0  0
    8.9282   -2.7702    0.0000 C   0  0  0  0  0  0  0  0  0  0  0  0
    8.0622   -1.2702    0.0000 C   0  0  0  0  0  0  0  0  0  0  0  0
    4.5981    1.7298    0.0000 C   0  0  0  0  0  0  0  0  0  0  0  0
    5.4641   -2.7702    0.0000 C   0  0  0  0  0  0  0  0  0  0  0  0
    9.7942   -3.2702    0.0000 C   0  0  0  0  0  0  0  0  0  0  0  0
    8.0622   -3.2702    0.0000 C   0  0  0  0  0  0  0  0  0  0  0  0
    3.7320    1.2298    0.0000 C   0  0  0  0  0  0  0  0  0  0  0  0
    4.5981   -3.2702    0.0000 C   0  0  0  0  0  0  0  0  0  0  0  0
    6.3301   -3.2702    0.0000 C   0  0  0  0  0  0  0  0  0  0  0  0
   10.6603   -1.7702    0.0000 C   0  0  0  0  0  0  0  0  0  0  0  0
    2.8660    1.7298    0.0000 C   0  0  0  0  0  0  0  0  0  0  0  0
    4.5981   -4.2702    0.0000 C   0  0  0  0  0  0  0  0  0  0  0  0
    6.3301   -4.2702    0.0000 C   0  0  0  0  0  0  0  0  0  0  0  0
   11.5263   -1.2702    0.0000 C   0  0  0  0  0  0  0  0  0  0  0  0
    5.4641   -4.7702    0.0000 C   0  0  0  0  0  0  0  0  0  0  0  0
   12.4398   -1.6770    0.0000 C   0  0  0  0  0  0  0  0  0  0  0  0
   13.1090   -0.9338    0.0000 C   0  0  0  0  0  0  0  0  0  0  0  0
    2.0000    3.2298    0.0000 C   0  0  0  0  0  0  0  0  0  0  0  0
   14.1035   -1.0383    0.0000 C   0  0  0  0  0  0  0  0  0  0  0  0
    2.0000    4.2298    0.0000 C   0  0  0  0  0  0  0  0  0  0  0  0
    6.8826    2.4483    0.0000 H   0  0  0  0  0  0  0  0  0  0  0  0
    6.5422    1.1472    0.0000 H   0  0  0  0  0  0  0  0  0  0  0  0
    6.9407    1.8374    0.0000 H   0  0  0  0  0  0  0  0  0  0  0  0
    4.9547    3.5698    0.0000 H   0  0  0  0  0  0  0  0  0  0  0  0
    5.2111    2.7806    0.0000 H   0  0  0  0  0  0  0  0  0  0  0  0
    6.0010    0.9198    0.0000 H   0  0  0  0  0  0  0  0  0  0  0  0
    5.8949    4.8852    0.0000 H   0  0  0  0  0  0  0  0  0  0  0  0
    5.2237    4.3975    0.0000 H   0  0  0  0  0  0  0  0  0  0  0  0
    6.8671   -0.9602    0.0000 H   0  0  0  0  0  0  0  0  0  0  0  0
    7.1946    4.7702    0.0000 H   0  0  0  0  0  0  0  0  0  0  0  0
    4.9272   -0.0802    0.0000 H   0  0  0  0  0  0  0  0  0  0  0  0
    6.7976   -2.2452    0.0000 H   0  0  0  0  0  0  0  0  0  0  0  0
    7.5947   -2.2452    0.0000 H   0  0  0  0  0  0  0  0  0  0  0  0
    8.9282   -1.1502    0.0000 H   0  0  0  0  0  0  0  0  0  0  0  0
    5.2520   -1.1876    0.0000 H   0  0  0  0  0  0  0  0  0  0  0  0
    4.8535   -1.8779    0.0000 H   0  0  0  0  0  0  0  0  0  0  0  0
    9.4651   -2.4602    0.0000 H   0  0  0  0  0  0  0  0  0  0  0  0
    4.5981    2.3498    0.0000 H   0  0  0  0  0  0  0  0  0  0  0  0
    9.7942   -0.6502    0.0000 H   0  0  0  0  0  0  0  0  0  0  0  0
    9.4842   -3.8072    0.0000 H   0  0  0  0  0  0  0  0  0  0  0  0
   10.3312   -3.5802    0.0000 H   0  0  0  0  0  0  0  0  0  0  0  0
   10.1042   -2.7333    0.0000 H   0  0  0  0  0  0  0  0  0  0  0  0
    7.7522   -2.7333    0.0000 H   0  0  0  0  0  0  0  0  0  0  0  0
    7.5252   -3.5802    0.0000 H   0  0  0  0  0  0  0  0  0  0  0  0
    8.3722   -3.8072    0.0000 H   0  0  0  0  0  0  0  0  0  0  0  0
    3.7320    0.6098    0.0000 H   0  0  0  0  0  0  0  0  0  0  0  0
    4.0611   -2.9602    0.0000 H   0  0  0  0  0  0  0  0  0  0  0  0
    6.8671   -2.9602    0.0000 H   0  0  0  0  0  0  0  0  0  0  0  0
    4.0611   -4.5802    0.0000 H   0  0  0  0  0  0  0  0  0  0  0  0
    6.8671   -4.5802    0.0000 H   0  0  0  0  0  0  0  0  0  0  0  0
    5.4641   -5.3902    0.0000 H   0  0  0  0  0  0  0  0  0  0  0  0
   12.5687   -2.2834    0.0000 H   0  0  0  0  0  0  0  0  0  0  0  0
    1.3894    3.3374    0.0000 H   0  0  0  0  0  0  0  0  0  0  0  0
    1.7880    2.6472    0.0000 H   0  0  0  0  0  0  0  0  0  0  0  0
   14.0387   -1.6549    0.0000 H   0  0  0  0  0  0  0  0  0  0  0  0
   14.7201   -1.1031    0.0000 H   0  0  0  0  0  0  0  0  0  0  0  0
   14.1683   -0.4217    0.0000 H   0  0  0  0  0  0  0  0  0  0  0  0
    2.6200    4.2298    0.0000 H   0  0  0  0  0  0  0  0  0  0  0  0
    2.0000    4.8498    0.0000 H   0  0  0  0  0  0  0  0  0  0  0  0
    1.3800    4.2298    0.0000 H   0  0  0  0  0  0  0  0  0  0  0  0
  1 17  2  0  0  0  0
  2 20  2  0  0  0  0
  3 24  2  0  0  0  0
  4 33  1  0  0  0  0
  4 40  1  0  0  0  0
  5 32  2  0  0  0  0
  6 33  2  0  0  0  0
  7 11  1  0  0  0  0
  7 39  1  0  0  0  0
  8 16  1  0  0  0  0
  8 17  1  0  0  0  0
  8 52  1  0  0  0  0
 15  9  1  6  0  0  0
  9 20  1  0  0  0  0
  9 53  1  0  0  0  0
 21 10  1  1  0  0  0
 10 32  1  0  0  0  0
 10 61  1  0  0  0  0
 11 36  2  0  0  0  0
 12 13  1  6  0  0  0
 12 14  1  0  0  0  0
 12 17  1  0  0  0  0
 12 43  1  0  0  0  0
 13 15  1  0  0  0  0
 13 44  1  0  0  0  0
 13 45  1  0  0  0  0
 14 16  1  0  0  0  0
 14 46  1  0  0  0  0
 14 47  1  0  0  0  0
 15 25  1  0  0  0  0
 15 48  1  0  0  0  0
 16 49  1  0  0  0  0
 16 50  1  0  0  0  0
 18 19  1  1  0  0  0
 18 20  1  0  0  0  0
 18 22  1  0  0  0  0
 18 51  1  0  0  0  0
 19 24  1  0  0  0  0
 19 54  1  0  0  0  0
 19 55  1  0  0  0  0
 21 23  1  0  0  0  0
 21 24  1  0  0  0  0
 21 56  1  0  0  0  0
 22 26  1  0  0  0  0
 22 57  1  0  0  0  0
 22 58  1  0  0  0  0
 23 27  1  0  0  0  0
 23 28  1  0  0  0  0
 23 59  1  0  0  0  0
 25 29  2  0  0  0  0
 25 60  1  0  0  0  0
 26 30  2  0  0  0  0
 26 31  1  0  0  0  0
 27 62  1  0  0  0  0
 27 63  1  0  0  0  0
 27 64  1  0  0  0  0
 28 65  1  0  0  0  0
 28 66  1  0  0  0  0
 28 67  1  0  0  0  0
 29 33  1  0  0  0  0
 29 68  1  0  0  0  0
 30 34  1  0  0  0  0
 30 69  1  0  0  0  0
 31 35  2  0  0  0  0
 31 70  1  0  0  0  0
 32 36  1  0  0  0  0
 34 37  2  0  0  0  0
 34 71  1  0  0  0  0
 35 37  1  0  0  0  0
 35 72  1  0  0  0  0
 36 38  1  0  0  0  0
 37 73  1  0  0  0  0
 38 39  2  0  0  0  0
 38 74  1  0  0  0  0
 39 41  1  0  0  0  0
 40 42  1  0  0  0  0
 40 75  1  0  0  0  0
 40 76  1  0  0  0  0
 41 77  1  0  0  0  0
 41 78  1  0  0  0  0
 41 79  1  0  0  0  0
 42 80  1  0  0  0  0
 42 81  1  0  0  0  0
 42 82  1  0  0  0  0
M  END
> <PUBCHEM_COMPOUND_CID>
11642725

> <PUBCHEM_COMPOUND_CANONICALIZED>
1

> <PUBCHEM_CACTVS_COMPLEXITY>
978

> <PUBCHEM_CACTVS_HBOND_ACCEPTOR>
8

> <PUBCHEM_CACTVS_HBOND_DONOR>
3

> <PUBCHEM_CACTVS_ROTATABLE_BOND>
16

> <PUBCHEM_CACTVS_SUBSKEYS>
AAADcfB7uAAAAAAAAAAAAAAAAAAAAWLAAAAwAAAAAAAAAAABwAAAHgAUAAAADSzhngYyjJLQBACpA6XyWgCCAAAmIgAomKG+bNoIZjqAtbOWMYhmlhiI6cc/icCeAAAAAAAAAAAAAAAAAAAAAAAAAAAAAA==

> <PUBCHEM_IUPAC_OPENEYE_NAME>
ethyl (E,4S)-4-[[(2R,5S)-2-benzyl-6-methyl-5-[(5-methylisoxazole-3-carbonyl)amino]-4-oxo-heptanoyl]amino]-5-[(3S)-2-oxopyrrolidin-3-yl]pent-2-enoate

> <PUBCHEM_IUPAC_CAS_NAME>
(E,4S)-4-[[(2R,5S)-6-methyl-5-[[(5-methyl-3-isoxazolyl)-oxomethyl]amino]-1,4-dioxo-2-(phenylmethyl)heptyl]amino]-5-[(3S)-2-oxo-3-pyrrolidinyl]-2-pentenoic acid ethyl ester

> <PUBCHEM_IUPAC_NAME_MARKUP>
ethyl (<I>E</I>,4<I>S</I>)-4-[[(2<I>R</I>,5<I>S</I>)-2-benzyl-6-methyl-5-[(5-methyl-1,2-oxazole-3-carbonyl)amino]-4-oxoheptanoyl]amino]-5-[(3<I>S</I>)-2-oxopyrrolidin-3-yl]pent-2-enoate

> <PUBCHEM_IUPAC_NAME>
ethyl (E,4S)-4-[[(2R,5S)-2-benzyl-6-methyl-5-[(5-methyl-1,2-oxazole-3-carbonyl)amino]-4-oxoheptanoyl]amino]-5-[(3S)-2-oxopyrrolidin-3-yl]pent-2-enoate

> <PUBCHEM_IUPAC_SYSTEMATIC_NAME>
ethyl (E,4S)-4-[[(2R,5S)-6-methyl-5-[(5-methyl-1,2-oxazol-3-yl)carbonylamino]-4-oxidanylidene-2-(phenylmethyl)heptanoyl]amino]-5-[(3S)-2-oxidanylidenepyrrolidin-3-yl]pent-2-enoate

> <PUBCHEM_IUPAC_TRADITIONAL_NAME>
(E,4S)-4-[[(2R,5S)-2-benzyl-4-keto-6-methyl-5-[(5-methylisoxazole-3-carbonyl)amino]heptanoyl]amino]-5-[(3S)-2-ketopyrrolidin-3-yl]pent-2-enoic acid ethyl ester

> <PUBCHEM_IUPAC_INCHI>
InChI=1S/C31H40N4O7/c1-5-41-27(37)12-11-24(17-22-13-14-32-29(22)38)33-30(39)23(16-21-9-7-6-8-10-21)18-26(36)28(19(2)3)34-31(40)25-15-20(4)42-35-25/h6-12,15,19,22-24,28H,5,13-14,16-18H2,1-4H3,(H,32,38)(H,33,39)(H,34,40)/b12-11+/t22-,23+,24+,28-/m0/s1

> <PUBCHEM_IUPAC_INCHIKEY>
DHTSLDPANDNYNQ-SJNZOZTPSA-N

> <PUBCHEM_XLOGP3_AA>
3

> <PUBCHEM_EXACT_MASS>
580.2897

> <PUBCHEM_MOLECULAR_FORMULA>
C31H40N4O7

> <PUBCHEM_MOLECULAR_WEIGHT>
580.7

> <PUBCHEM_OPENEYE_CAN_SMILES>
CCOC(=O)C=CC(CC1CCNC1=O)NC(=O)C(CC2=CC=CC=C2)CC(=O)C(C(C)C)NC(=O)C3=NOC(=C3)C

> <PUBCHEM_OPENEYE_ISO_SMILES>
CCOC(=O)/C=C/[C@H](C[C@@H]1CCNC1=O)NC(=O)[C@H](CC2=CC=CC=C2)CC(=O)[C@H](C(C)C)NC(=O)C3=NOC(=C3)C

> <PUBCHEM_CACTVS_TPSA>
157

> <PUBCHEM_MONOISOTOPIC_WEIGHT>
580.2897

> <PUBCHEM_TOTAL_CHARGE>
0

> <PUBCHEM_HEAVY_ATOM_COUNT>
42

> <PUBCHEM_ATOM_DEF_STEREO_COUNT>
4

> <PUBCHEM_ATOM_UDEF_STEREO_COUNT>
0

> <PUBCHEM_BOND_DEF_STEREO_COUNT>
1

> <PUBCHEM_BOND_UDEF_STEREO_COUNT>
0

> <PUBCHEM_ISOTOPIC_ATOM_COUNT>
0

> <PUBCHEM_COMPONENT_COUNT>
1

> <PUBCHEM_CACTVS_TAUTO_COUNT>
-1

> <PUBCHEM_COORDINATE_TYPE>
1
5
255

> <PUBCHEM_BONDANNOTATIONS>
21  10  5
11  36  8
12  13  6
18  19  5
26  30  8
26  31  8
30  34  8
31  35  8
34  37  8
35  37  8
36  38  8
38  39  8
7  11  8
7  39  8
15  9  6

$$$$
11757719
  -OEChem-02212016592D

 80 81  0     1  0  0  0  0  0999 V2000
    5.3147    0.5020    0.0000 O   0  0  0  0  0  0  0  0  0  0  0  0
    7.9128   -1.9980    0.0000 O   0  0  0  0  0  0  0  0  0  0  0  0
    4.4487    1.0020    0.0000 O   0  0  0  0  0  0  0  0  0  0  0  0
    2.0000    2.8384    0.0000 O   0  0  0  0  0  0  0  0  0  0  0  0
    9.6448   -3.9980    0.0000 O   0  0  0  0  0  0  0  0  0  0  0  0
   13.1090   -0.9980    0.0000 O   0  0  0  0  0  0  0  0  0  0  0  0
   12.2429    0.5020    0.0000 O   0  0  0  0  0  0  0  0  0  0  0  0
    7.0468    0.5020    0.0000 N   0  0  0  0  0  0  0  0  0  0  0  0
    5.3147    2.5020    0.0000 N   0  0  0  0  0  0  0  0  0  0  0  0
    8.7788   -0.4980    0.0000 N   0  0  0  0  0  0  0  0  0  0  0  0
    2.6691    2.0953    0.0000 N   0  0  0  0  0  0  0  0  0  0  0  0
   11.3769   -3.9980    0.0000 N   0  0  0  0  0  0  0  0  0  0  0  0
    7.0468    2.5020    0.0000 C   0  0  0  0  0  0  0  0  0  0  0  0
    6.1808    2.0020    0.0000 C   0  0  1  0  0  0  0  0  0  0  0  0
    7.0468    3.5020    0.0000 C   0  0  0  0  0  0  0  0  0  0  0  0
    7.0468   -0.4980    0.0000 C   0  0  1  0  0  0  0  0  0  0  0  0
    6.1808    1.0020    0.0000 C   0  0  0  0  0  0  0  0  0  0  0  0
    6.1808   -0.9980    0.0000 C   0  0  0  0  0  0  0  0  0  0  0  0
    7.9128    4.0020    0.0000 C   0  0  0  0  0  0  0  0  0  0  0  0
    6.1808    4.0020    0.0000 C   0  0  0  0  0  0  0  0  0  0  0  0
    7.9128   -0.9980    0.0000 C   0  0  0  0  0  0  0  0  0  0  0  0
    9.6448   -0.9980    0.0000 C   0  0  1  0  0  0  0  0  0  0  0  0
    9.6448   -1.9980    0.0000 C   0  0  0  0  0  0  0  0  0  0  0  0
    6.1808   -1.9980    0.0000 C   0  0  0  0  0  0  0  0  0  0  0  0
    4.4487    2.0020    0.0000 C   0  0  0  0  0  0  0  0  0  0  0  0
   10.5109   -2.4980    0.0000 C   0  0  0  0  0  0  0  0  0  0  0  0
   10.5109   -0.4980    0.0000 C   0  0  0  0  0  0  0  0  0  0  0  0
    5.3147   -2.4980    0.0000 C   0  0  0  0  0  0  0  0  0  0  0  0
    7.0468   -2.4980    0.0000 C   0  0  0  0  0  0  0  0  0  0  0  0
    3.5827    2.5020    0.0000 C   0  0  0  0  0  0  0  0  0  0  0  0
    5.3147   -3.4980    0.0000 C   0  0  0  0  0  0  0  0  0  0  0  0
    7.0468   -3.4980    0.0000 C   0  0  0  0  0  0  0  0  0  0  0  0
   10.5109   -3.4980    0.0000 C   0  0  0  0  0  0  0  0  0  0  0  0
   11.3769   -0.9980    0.0000 C   0  0  0  0  0  0  0  0  0  0  0  0
    6.1808   -3.9980    0.0000 C   0  0  0  0  0  0  0  0  0  0  0  0
    3.4782    3.4965    0.0000 C   0  0  0  0  0  0  0  0  0  0  0  0
    2.5000    3.7044    0.0000 C   0  0  0  0  0  0  0  0  0  0  0  0
   12.2429   -0.4980    0.0000 C   0  0  0  0  0  0  0  0  0  0  0  0
    2.0933    4.6180    0.0000 C   0  0  0  0  0  0  0  0  0  0  0  0
   13.9750   -0.4980    0.0000 C   0  0  0  0  0  0  0  0  0  0  0  0
   14.8410   -0.9980    0.0000 C   0  0  0  0  0  0  0  0  0  0  0  0
    7.2588    1.9194    0.0000 H   0  0  0  0  0  0  0  0  0  0  0  0
    7.6574    2.6097    0.0000 H   0  0  0  0  0  0  0  0  0  0  0  0
    6.1808    2.6220    0.0000 H   0  0  0  0  0  0  0  0  0  0  0  0
    7.0468    4.1220    0.0000 H   0  0  0  0  0  0  0  0  0  0  0  0
    7.5837   -0.1880    0.0000 H   0  0  0  0  0  0  0  0  0  0  0  0
    7.5837    0.8120    0.0000 H   0  0  0  0  0  0  0  0  0  0  0  0
    5.9687   -0.4154    0.0000 H   0  0  0  0  0  0  0  0  0  0  0  0
    5.5702   -1.1056    0.0000 H   0  0  0  0  0  0  0  0  0  0  0  0
    8.2228    3.4651    0.0000 H   0  0  0  0  0  0  0  0  0  0  0  0
    8.4497    4.3120    0.0000 H   0  0  0  0  0  0  0  0  0  0  0  0
    7.6028    4.5390    0.0000 H   0  0  0  0  0  0  0  0  0  0  0  0
    6.4908    4.5390    0.0000 H   0  0  0  0  0  0  0  0  0  0  0  0
    5.6438    4.3120    0.0000 H   0  0  0  0  0  0  0  0  0  0  0  0
    5.8708    3.4651    0.0000 H   0  0  0  0  0  0  0  0  0  0  0  0
    5.3147    3.1220    0.0000 H   0  0  0  0  0  0  0  0  0  0  0  0
    9.1079   -1.3080    0.0000 H   0  0  0  0  0  0  0  0  0  0  0  0
    8.7788    0.1220    0.0000 H   0  0  0  0  0  0  0  0  0  0  0  0
    9.0343   -1.8903    0.0000 H   0  0  0  0  0  0  0  0  0  0  0  0
    9.4328   -2.5806    0.0000 H   0  0  0  0  0  0  0  0  0  0  0  0
   11.1215   -2.6056    0.0000 H   0  0  0  0  0  0  0  0  0  0  0  0
   10.7229   -1.9154    0.0000 H   0  0  0  0  0  0  0  0  0  0  0  0
   10.5109    0.1220    0.0000 H   0  0  0  0  0  0  0  0  0  0  0  0
    4.7778   -2.1880    0.0000 H   0  0  0  0  0  0  0  0  0  0  0  0
    7.5837   -2.1880    0.0000 H   0  0  0  0  0  0  0  0  0  0  0  0
    4.7778   -3.8080    0.0000 H   0  0  0  0  0  0  0  0  0  0  0  0
    7.5837   -3.8080    0.0000 H   0  0  0  0  0  0  0  0  0  0  0  0
   11.3769   -1.6180    0.0000 H   0  0  0  0  0  0  0  0  0  0  0  0
    6.1808   -4.6180    0.0000 H   0  0  0  0  0  0  0  0  0  0  0  0
    3.9389    3.9114    0.0000 H   0  0  0  0  0  0  0  0  0  0  0  0
   11.3769   -4.6180    0.0000 H   0  0  0  0  0  0  0  0  0  0  0  0
   11.9138   -3.6880    0.0000 H   0  0  0  0  0  0  0  0  0  0  0  0
    2.6597    4.8702    0.0000 H   0  0  0  0  0  0  0  0  0  0  0  0
    1.8411    5.1844    0.0000 H   0  0  0  0  0  0  0  0  0  0  0  0
    1.5269    4.3658    0.0000 H   0  0  0  0  0  0  0  0  0  0  0  0
   14.3735   -0.0230    0.0000 H   0  0  0  0  0  0  0  0  0  0  0  0
   13.5765   -0.0230    0.0000 H   0  0  0  0  0  0  0  0  0  0  0  0
   14.5310   -1.5349    0.0000 H   0  0  0  0  0  0  0  0  0  0  0  0
   15.3779   -1.3080    0.0000 H   0  0  0  0  0  0  0  0  0  0  0  0
   15.1510   -0.4611    0.0000 H   0  0  0  0  0  0  0  0  0  0  0  0
  1 17  2  0  0  0  0
  2 21  2  0  0  0  0
  3 25  2  0  0  0  0
  4 11  1  0  0  0  0
  4 37  1  0  0  0  0
  5 33  2  0  0  0  0
  6 38  1  0  0  0  0
  6 40  1  0  0  0  0
  7 38  2  0  0  0  0
 16  8  1  6  0  0  0
  8 17  1  0  0  0  0
  8 47  1  0  0  0  0
 14  9  1  1  0  0  0
  9 25  1  0  0  0  0
  9 56  1  0  0  0  0
 10 21  1  0  0  0  0
 22 10  1  6  0  0  0
 10 58  1  0  0  0  0
 11 30  2  0  0  0  0
 12 33  1  0  0  0  0
 12 71  1  0  0  0  0
 12 72  1  0  0  0  0
 13 14  1  0  0  0  0
 13 15  1  0  0  0  0
 13 42  1  0  0  0  0
 13 43  1  0  0  0  0
 14 17  1  0  0  0  0
 14 44  1  0  0  0  0
 15 19  1  0  0  0  0
 15 20  1  0  0  0  0
 15 45  1  0  0  0  0
 16 18  1  0  0  0  0
 16 21  1  0  0  0  0
 16 46  1  0  0  0  0
 18 24  1  0  0  0  0
 18 48  1  0  0  0  0
 18 49  1  0  0  0  0
 19 50  1  0  0  0  0
 19 51  1  0  0  0  0
 19 52  1  0  0  0  0
 20 53  1  0  0  0  0
 20 54  1  0  0  0  0
 20 55  1  0  0  0  0
 22 23  1  0  0  0  0
 22 27  1  0  0  0  0
 22 57  1  0  0  0  0
 23 26  1  0  0  0  0
 23 59  1  0  0  0  0
 23 60  1  0  0  0  0
 24 28  2  0  0  0  0
 24 29  1  0  0  0  0
 25 30  1  0  0  0  0
 26 33  1  0  0  0  0
 26 61  1  0  0  0  0
 26 62  1  0  0  0  0
 27 34  2  0  0  0  0
 27 63  1  0  0  0  0
 28 31  1  0  0  0  0
 28 64  1  0  0  0  0
 29 32  2  0  0  0  0
 29 65  1  0  0  0  0
 30 36  1  0  0  0  0
 31 35  2  0  0  0  0
 31 66  1  0  0  0  0
 32 35  1  0  0  0  0
 32 67  1  0  0  0  0
 34 38  1  0  0  0  0
 34 68  1  0  0  0  0
 35 69  1  0  0  0  0
 36 37  2  0  0  0  0
 36 70  1  0  0  0  0
 37 39  1  0  0  0  0
 39 73  1  0  0  0  0
 39 74  1  0  0  0  0
 39 75  1  0  0  0  0
 40 41  1  0  0  0  0
 40 76  1  0  0  0  0
 40 77  1  0  0  0  0
 41 78  1  0  0  0  0
 41 79  1  0  0  0  0
 41 80  1  0  0  0  0
M  END
> <PUBCHEM_COMPOUND_CID>
11757719

> <PUBCHEM_COMPOUND_CANONICALIZED>
1

> <PUBCHEM_CACTVS_COMPLEXITY>
919

> <PUBCHEM_CACTVS_HBOND_ACCEPTOR>
8

> <PUBCHEM_CACTVS_HBOND_DONOR>
4

> <PUBCHEM_CACTVS_ROTATABLE_BOND>
17

> <PUBCHEM_CACTVS_SUBSKEYS>
AAADcfB7uAAAAAAAAAAAAAAAAAAAAWAAAAAwAAAAAAAAAAABwAAAHgAUAAAADSzhngYyjJLQBACpA6XyWgCCAAAmIgAomKG+bNoIZjqAtbOWMYhmlhiI6cc/iICOAAAAAAAAAAAAAAAAAAAAAAAAAAAAAA==

> <PUBCHEM_IUPAC_OPENEYE_NAME>
ethyl (E,4S)-7-amino-4-[[(2S)-2-[[(2S)-4-methyl-2-[(5-methylisoxazole-3-carbonyl)amino]pentanoyl]amino]-3-phenyl-propanoyl]amino]-7-oxo-hept-2-enoate

> <PUBCHEM_IUPAC_CAS_NAME>
(E,4S)-7-amino-4-[[(2S)-2-[[(2S)-4-methyl-2-[[(5-methyl-3-isoxazolyl)-oxomethyl]amino]-1-oxopentyl]amino]-1-oxo-3-phenylpropyl]amino]-7-oxo-2-heptenoic acid ethyl ester

> <PUBCHEM_IUPAC_NAME_MARKUP>
ethyl (<I>E</I>,4<I>S</I>)-7-amino-4-[[(2<I>S</I>)-2-[[(2<I>S</I>)-4-methyl-2-[(5-methyl-1,2-oxazole-3-carbonyl)amino]pentanoyl]amino]-3-phenylpropanoyl]amino]-7-oxohept-2-enoate

> <PUBCHEM_IUPAC_NAME>
ethyl (E,4S)-7-amino-4-[[(2S)-2-[[(2S)-4-methyl-2-[(5-methyl-1,2-oxazole-3-carbonyl)amino]pentanoyl]amino]-3-phenylpropanoyl]amino]-7-oxohept-2-enoate

> <PUBCHEM_IUPAC_SYSTEMATIC_NAME>
ethyl (E,4S)-7-azanyl-4-[[(2S)-2-[[(2S)-4-methyl-2-[(5-methyl-1,2-oxazol-3-yl)carbonylamino]pentanoyl]amino]-3-phenyl-propanoyl]amino]-7-oxidanylidene-hept-2-enoate

> <PUBCHEM_IUPAC_TRADITIONAL_NAME>
(E,4S)-7-amino-7-keto-4-[[(2S)-2-[[(2S)-4-methyl-2-[(5-methylisoxazole-3-carbonyl)amino]pentanoyl]amino]-3-phenyl-propanoyl]amino]hept-2-enoic acid ethyl ester

> <PUBCHEM_IUPAC_INCHI>
InChI=1S/C29H39N5O7/c1-5-40-26(36)14-12-21(11-13-25(30)35)31-27(37)23(17-20-9-7-6-8-10-20)33-28(38)22(15-18(2)3)32-29(39)24-16-19(4)41-34-24/h6-10,12,14,16,18,21-23H,5,11,13,15,17H2,1-4H3,(H2,30,35)(H,31,37)(H,32,39)(H,33,38)/b14-12+/t21-,22-,23-/m0/s1

> <PUBCHEM_IUPAC_INCHIKEY>
PRJDINOEQYAYIT-KKDRGVPQSA-N

> <PUBCHEM_XLOGP3_AA>
2.5

> <PUBCHEM_EXACT_MASS>
569.284949

> <PUBCHEM_MOLECULAR_FORMULA>
C29H39N5O7

> <PUBCHEM_MOLECULAR_WEIGHT>
569.6

> <PUBCHEM_OPENEYE_CAN_SMILES>
CCOC(=O)C=CC(CCC(=O)N)NC(=O)C(CC1=CC=CC=C1)NC(=O)C(CC(C)C)NC(=O)C2=NOC(=C2)C

> <PUBCHEM_OPENEYE_ISO_SMILES>
CCOC(=O)/C=C/[C@H](CCC(=O)N)NC(=O)[C@H](CC1=CC=CC=C1)NC(=O)[C@H](CC(C)C)NC(=O)C2=NOC(=C2)C

> <PUBCHEM_CACTVS_TPSA>
183

> <PUBCHEM_MONOISOTOPIC_WEIGHT>
569.284949

> <PUBCHEM_TOTAL_CHARGE>
0

> <PUBCHEM_HEAVY_ATOM_COUNT>
41

> <PUBCHEM_ATOM_DEF_STEREO_COUNT>
3

> <PUBCHEM_ATOM_UDEF_STEREO_COUNT>
0

> <PUBCHEM_BOND_DEF_STEREO_COUNT>
1

> <PUBCHEM_BOND_UDEF_STEREO_COUNT>
0

> <PUBCHEM_ISOTOPIC_ATOM_COUNT>
0

> <PUBCHEM_COMPONENT_COUNT>
1

> <PUBCHEM_CACTVS_TAUTO_COUNT>
-1

> <PUBCHEM_COORDINATE_TYPE>
1
5
255

> <PUBCHEM_BONDANNOTATIONS>
22  10  6
11  30  8
24  28  8
24  29  8
28  31  8
29  32  8
30  36  8
31  35  8
32  35  8
36  37  8
4  11  8
4  37  8
16  8  6
14  9  5

$$$$
15547373
  -OEChem-02212016592D

 83 84  0     1  0  0  0  0  0999 V2000
    5.3147    0.5020    0.0000 O   0  0  0  0  0  0  0  0  0  0  0  0
    7.9128   -1.9980    0.0000 O   0  0  0  0  0  0  0  0  0  0  0  0
    4.4487    1.0020    0.0000 O   0  0  0  0  0  0  0  0  0  0  0  0
    2.0000    2.8384    0.0000 O   0  0  0  0  0  0  0  0  0  0  0  0
    9.6448   -3.9980    0.0000 O   0  0  0  0  0  0  0  0  0  0  0  0
   13.1090   -0.9980    0.0000 O   0  0  0  0  0  0  0  0  0  0  0  0
   12.2429    0.5020    0.0000 O   0  0  0  0  0  0  0  0  0  0  0  0
    7.0468    0.5020    0.0000 N   0  0  0  0  0  0  0  0  0  0  0  0
    5.3147    2.5020    0.0000 N   0  0  0  0  0  0  0  0  0  0  0  0
    8.7788   -0.4980    0.0000 N   0  0  0  0  0  0  0  0  0  0  0  0
    2.6691    2.0953    0.0000 N   0  0  0  0  0  0  0  0  0  0  0  0
   11.3769   -3.9980    0.0000 N   0  0  0  0  0  0  0  0  0  0  0  0
    6.1808    2.0020    0.0000 C   0  0  1  0  0  0  0  0  0  0  0  0
    7.0468    2.5020    0.0000 C   0  0  0  0  0  0  0  0  0  0  0  0
    7.0468   -0.4980    0.0000 C   0  0  1  0  0  0  0  0  0  0  0  0
    7.0468    3.5020    0.0000 C   0  0  0  0  0  0  0  0  0  0  0  0
    6.1808    1.0020    0.0000 C   0  0  0  0  0  0  0  0  0  0  0  0
    6.1808   -0.9980    0.0000 C   0  0  0  0  0  0  0  0  0  0  0  0
    7.9128   -0.9980    0.0000 C   0  0  0  0  0  0  0  0  0  0  0  0
    7.9128    4.0020    0.0000 C   0  0  0  0  0  0  0  0  0  0  0  0
    6.1808    4.0020    0.0000 C   0  0  0  0  0  0  0  0  0  0  0  0
    9.6448   -0.9980    0.0000 C   0  0  1  0  0  0  0  0  0  0  0  0
    7.9128    1.0020    0.0000 C   0  0  0  0  0  0  0  0  0  0  0  0
    6.1808   -1.9980    0.0000 C   0  0  0  0  0  0  0  0  0  0  0  0
    9.6448   -1.9980    0.0000 C   0  0  0  0  0  0  0  0  0  0  0  0
    4.4487    2.0020    0.0000 C   0  0  0  0  0  0  0  0  0  0  0  0
   10.5109   -2.4980    0.0000 C   0  0  0  0  0  0  0  0  0  0  0  0
   10.5109   -0.4980    0.0000 C   0  0  0  0  0  0  0  0  0  0  0  0
    5.3147   -2.4980    0.0000 C   0  0  0  0  0  0  0  0  0  0  0  0
    7.0468   -2.4980    0.0000 C   0  0  0  0  0  0  0  0  0  0  0  0
    3.5827    2.5020    0.0000 C   0  0  0  0  0  0  0  0  0  0  0  0
    5.3147   -3.4980    0.0000 C   0  0  0  0  0  0  0  0  0  0  0  0
    7.0468   -3.4980    0.0000 C   0  0  0  0  0  0  0  0  0  0  0  0
    6.1808   -3.9980    0.0000 C   0  0  0  0  0  0  0  0  0  0  0  0
   10.5109   -3.4980    0.0000 C   0  0  0  0  0  0  0  0  0  0  0  0
   11.3769   -0.9980    0.0000 C   0  0  0  0  0  0  0  0  0  0  0  0
    3.4782    3.4965    0.0000 C   0  0  0  0  0  0  0  0  0  0  0  0
    2.5000    3.7044    0.0000 C   0  0  0  0  0  0  0  0  0  0  0  0
   12.2429   -0.4980    0.0000 C   0  0  0  0  0  0  0  0  0  0  0  0
    2.0933    4.6180    0.0000 C   0  0  0  0  0  0  0  0  0  0  0  0
   13.9750   -0.4980    0.0000 C   0  0  0  0  0  0  0  0  0  0  0  0
   14.8410   -0.9980    0.0000 C   0  0  0  0  0  0  0  0  0  0  0  0
    6.1808    2.6220    0.0000 H   0  0  0  0  0  0  0  0  0  0  0  0
    7.2588    1.9194    0.0000 H   0  0  0  0  0  0  0  0  0  0  0  0
    7.6574    2.6097    0.0000 H   0  0  0  0  0  0  0  0  0  0  0  0
    7.5837   -0.1880    0.0000 H   0  0  0  0  0  0  0  0  0  0  0  0
    7.0468    4.1220    0.0000 H   0  0  0  0  0  0  0  0  0  0  0  0
    5.9687   -0.4154    0.0000 H   0  0  0  0  0  0  0  0  0  0  0  0
    5.5702   -1.1056    0.0000 H   0  0  0  0  0  0  0  0  0  0  0  0
    5.3147    3.1220    0.0000 H   0  0  0  0  0  0  0  0  0  0  0  0
    8.2228    3.4651    0.0000 H   0  0  0  0  0  0  0  0  0  0  0  0
    8.4497    4.3120    0.0000 H   0  0  0  0  0  0  0  0  0  0  0  0
    7.6028    4.5390    0.0000 H   0  0  0  0  0  0  0  0  0  0  0  0
    6.4908    4.5390    0.0000 H   0  0  0  0  0  0  0  0  0  0  0  0
    5.6438    4.3120    0.0000 H   0  0  0  0  0  0  0  0  0  0  0  0
    5.8708    3.4651    0.0000 H   0  0  0  0  0  0  0  0  0  0  0  0
    9.1079   -1.3080    0.0000 H   0  0  0  0  0  0  0  0  0  0  0  0
    8.2228    0.4651    0.0000 H   0  0  0  0  0  0  0  0  0  0  0  0
    8.4497    1.3120    0.0000 H   0  0  0  0  0  0  0  0  0  0  0  0
    7.6028    1.5390    0.0000 H   0  0  0  0  0  0  0  0  0  0  0  0
    8.7788    0.1220    0.0000 H   0  0  0  0  0  0  0  0  0  0  0  0
    9.0343   -1.8903    0.0000 H   0  0  0  0  0  0  0  0  0  0  0  0
    9.4328   -2.5806    0.0000 H   0  0  0  0  0  0  0  0  0  0  0  0
   11.1215   -2.6056    0.0000 H   0  0  0  0  0  0  0  0  0  0  0  0
   10.7229   -1.9154    0.0000 H   0  0  0  0  0  0  0  0  0  0  0  0
   10.5109    0.1220    0.0000 H   0  0  0  0  0  0  0  0  0  0  0  0
    4.7778   -2.1880    0.0000 H   0  0  0  0  0  0  0  0  0  0  0  0
    7.5837   -2.1880    0.0000 H   0  0  0  0  0  0  0  0  0  0  0  0
    4.7778   -3.8080    0.0000 H   0  0  0  0  0  0  0  0  0  0  0  0
    7.5837   -3.8080    0.0000 H   0  0  0  0  0  0  0  0  0  0  0  0
    6.1808   -4.6180    0.0000 H   0  0  0  0  0  0  0  0  0  0  0  0
   11.3769   -1.6180    0.0000 H   0  0  0  0  0  0  0  0  0  0  0  0
    3.9389    3.9114    0.0000 H   0  0  0  0  0  0  0  0  0  0  0  0
   11.3769   -4.6180    0.0000 H   0  0  0  0  0  0  0  0  0  0  0  0
   11.9138   -3.6880    0.0000 H   0  0  0  0  0  0  0  0  0  0  0  0
    2.6597    4.8702    0.0000 H   0  0  0  0  0  0  0  0  0  0  0  0
    1.8411    5.1844    0.0000 H   0  0  0  0  0  0  0  0  0  0  0  0
    1.5269    4.3658    0.0000 H   0  0  0  0  0  0  0  0  0  0  0  0
   14.3735   -0.0230    0.0000 H   0  0  0  0  0  0  0  0  0  0  0  0
   13.5765   -0.0230    0.0000 H   0  0  0  0  0  0  0  0  0  0  0  0
   14.5310   -1.5349    0.0000 H   0  0  0  0  0  0  0  0  0  0  0  0
   15.3779   -1.3080    0.0000 H   0  0  0  0  0  0  0  0  0  0  0  0
   15.1510   -0.4611    0.0000 H   0  0  0  0  0  0  0  0  0  0  0  0
  1 17  2  0  0  0  0
  2 19  2  0  0  0  0
  3 26  2  0  0  0  0
  4 11  1  0  0  0  0
  4 38  1  0  0  0  0
  5 35  2  0  0  0  0
  6 39  1  0  0  0  0
  6 41  1  0  0  0  0
  7 39  2  0  0  0  0
 15  8  1  6  0  0  0
  8 17  1  0  0  0  0
  8 23  1  0  0  0  0
 13  9  1  1  0  0  0
  9 26  1  0  0  0  0
  9 50  1  0  0  0  0
 10 19  1  0  0  0  0
 22 10  1  6  0  0  0
 10 61  1  0  0  0  0
 11 31  2  0  0  0  0
 12 35  1  0  0  0  0
 12 74  1  0  0  0  0
 12 75  1  0  0  0  0
 13 14  1  0  0  0  0
 13 17  1  0  0  0  0
 13 43  1  0  0  0  0
 14 16  1  0  0  0  0
 14 44  1  0  0  0  0
 14 45  1  0  0  0  0
 15 18  1  0  0  0  0
 15 19  1  0  0  0  0
 15 46  1  0  0  0  0
 16 20  1  0  0  0  0
 16 21  1  0  0  0  0
 16 47  1  0  0  0  0
 18 24  1  0  0  0  0
 18 48  1  0  0  0  0
 18 49  1  0  0  0  0
 20 51  1  0  0  0  0
 20 52  1  0  0  0  0
 20 53  1  0  0  0  0
 21 54  1  0  0  0  0
 21 55  1  0  0  0  0
 21 56  1  0  0  0  0
 22 25  1  0  0  0  0
 22 28  1  0  0  0  0
 22 57  1  0  0  0  0
 23 58  1  0  0  0  0
 23 59  1  0  0  0  0
 23 60  1  0  0  0  0
 24 29  2  0  0  0  0
 24 30  1  0  0  0  0
 25 27  1  0  0  0  0
 25 62  1  0  0  0  0
 25 63  1  0  0  0  0
 26 31  1  0  0  0  0
 27 35  1  0  0  0  0
 27 64  1  0  0  0  0
 27 65  1  0  0  0  0
 28 36  2  0  0  0  0
 28 66  1  0  0  0  0
 29 32  1  0  0  0  0
 29 67  1  0  0  0  0
 30 33  2  0  0  0  0
 30 68  1  0  0  0  0
 31 37  1  0  0  0  0
 32 34  2  0  0  0  0
 32 69  1  0  0  0  0
 33 34  1  0  0  0  0
 33 70  1  0  0  0  0
 34 71  1  0  0  0  0
 36 39  1  0  0  0  0
 36 72  1  0  0  0  0
 37 38  2  0  0  0  0
 37 73  1  0  0  0  0
 38 40  1  0  0  0  0
 40 76  1  0  0  0  0
 40 77  1  0  0  0  0
 40 78  1  0  0  0  0
 41 42  1  0  0  0  0
 41 79  1  0  0  0  0
 41 80  1  0  0  0  0
 42 81  1  0  0  0  0
 42 82  1  0  0  0  0
 42 83  1  0  0  0  0
M  END
> <PUBCHEM_COMPOUND_CID>
15547373

> <PUBCHEM_COMPOUND_CANONICALIZED>
1

> <PUBCHEM_CACTVS_COMPLEXITY>
950

> <PUBCHEM_CACTVS_HBOND_ACCEPTOR>
8

> <PUBCHEM_CACTVS_HBOND_DONOR>
3

> <PUBCHEM_CACTVS_ROTATABLE_BOND>
17

> <PUBCHEM_CACTVS_SUBSKEYS>
AAADcfB7uAAAAAAAAAAAAAAAAAAAAWAAAAAwAAAAAAAAAAABwAAAHgAUAAAADSzhngYyjJPQBACpA6XyWgCCAAAmIgAomKG+bNoIZjqAtbOWMYhmlhiI6cc/iICOAAAAAAAAAAAAAAAAAAAAAAAAAAAAAA==

> <PUBCHEM_IUPAC_OPENEYE_NAME>
ethyl (E,4S)-7-amino-4-[[(2S)-2-[methyl-[(2S)-4-methyl-2-[(5-methylisoxazole-3-carbonyl)amino]pentanoyl]amino]-3-phenyl-propanoyl]amino]-7-oxo-hept-2-enoate

> <PUBCHEM_IUPAC_CAS_NAME>
(E,4S)-7-amino-4-[[(2S)-2-[methyl-[(2S)-4-methyl-2-[[(5-methyl-3-isoxazolyl)-oxomethyl]amino]-1-oxopentyl]amino]-1-oxo-3-phenylpropyl]amino]-7-oxo-2-heptenoic acid ethyl ester

> <PUBCHEM_IUPAC_NAME_MARKUP>
ethyl (<I>E</I>,4<I>S</I>)-7-amino-4-[[(2<I>S</I>)-2-[methyl-[(2<I>S</I>)-4-methyl-2-[(5-methyl-1,2-oxazole-3-carbonyl)amino]pentanoyl]amino]-3-phenylpropanoyl]amino]-7-oxohept-2-enoate

> <PUBCHEM_IUPAC_NAME>
ethyl (E,4S)-7-amino-4-[[(2S)-2-[methyl-[(2S)-4-methyl-2-[(5-methyl-1,2-oxazole-3-carbonyl)amino]pentanoyl]amino]-3-phenylpropanoyl]amino]-7-oxohept-2-enoate

> <PUBCHEM_IUPAC_SYSTEMATIC_NAME>
ethyl (E,4S)-7-azanyl-4-[[(2S)-2-[methyl-[(2S)-4-methyl-2-[(5-methyl-1,2-oxazol-3-yl)carbonylamino]pentanoyl]amino]-3-phenyl-propanoyl]amino]-7-oxidanylidene-hept-2-enoate

> <PUBCHEM_IUPAC_TRADITIONAL_NAME>
(E,4S)-7-amino-7-keto-4-[[(2S)-2-[methyl-[(2S)-4-methyl-2-[(5-methylisoxazole-3-carbonyl)amino]pentanoyl]amino]-3-phenyl-propanoyl]amino]hept-2-enoic acid ethyl ester

> <PUBCHEM_IUPAC_INCHI>
InChI=1S/C30H41N5O7/c1-6-41-27(37)15-13-22(12-14-26(31)36)32-29(39)25(18-21-10-8-7-9-11-21)35(5)30(40)24(16-19(2)3)33-28(38)23-17-20(4)42-34-23/h7-11,13,15,17,19,22,24-25H,6,12,14,16,18H2,1-5H3,(H2,31,36)(H,32,39)(H,33,38)/b15-13+/t22-,24-,25-/m0/s1

> <PUBCHEM_IUPAC_INCHIKEY>
GCMBSRPWEFZQKW-DEUOMTTOSA-N

> <PUBCHEM_XLOGP3_AA>
2.7

> <PUBCHEM_EXACT_MASS>
583.300599

> <PUBCHEM_MOLECULAR_FORMULA>
C30H41N5O7

> <PUBCHEM_MOLECULAR_WEIGHT>
583.7

> <PUBCHEM_OPENEYE_CAN_SMILES>
CCOC(=O)C=CC(CCC(=O)N)NC(=O)C(CC1=CC=CC=C1)N(C)C(=O)C(CC(C)C)NC(=O)C2=NOC(=C2)C

> <PUBCHEM_OPENEYE_ISO_SMILES>
CCOC(=O)/C=C/[C@H](CCC(=O)N)NC(=O)[C@H](CC1=CC=CC=C1)N(C)C(=O)[C@H](CC(C)C)NC(=O)C2=NOC(=C2)C

> <PUBCHEM_CACTVS_TPSA>
174

> <PUBCHEM_MONOISOTOPIC_WEIGHT>
583.300599

> <PUBCHEM_TOTAL_CHARGE>
0

> <PUBCHEM_HEAVY_ATOM_COUNT>
42

> <PUBCHEM_ATOM_DEF_STEREO_COUNT>
3

> <PUBCHEM_ATOM_UDEF_STEREO_COUNT>
0

> <PUBCHEM_BOND_DEF_STEREO_COUNT>
1

> <PUBCHEM_BOND_UDEF_STEREO_COUNT>
0

> <PUBCHEM_ISOTOPIC_ATOM_COUNT>
0

> <PUBCHEM_COMPONENT_COUNT>
1

> <PUBCHEM_CACTVS_TAUTO_COUNT>
-1

> <PUBCHEM_COORDINATE_TYPE>
1
5
255

> <PUBCHEM_BONDANNOTATIONS>
22  10  6
11  31  8
24  29  8
24  30  8
29  32  8
30  33  8
31  37  8
32  34  8
33  34  8
37  38  8
4  11  8
4  38  8
15  8  6
13  9  5

$$$$
15547374
  -OEChem-02212016592D

 83 84  0     1  0  0  0  0  0999 V2000
    6.1808   -4.8080    0.0000 F   0  0  0  0  0  0  0  0  0  0  0  0
    5.3147    0.6920    0.0000 O   0  0  0  0  0  0  0  0  0  0  0  0
    7.9128   -1.8080    0.0000 O   0  0  0  0  0  0  0  0  0  0  0  0
    4.4487    1.1920    0.0000 O   0  0  0  0  0  0  0  0  0  0  0  0
    2.0000    3.0284    0.0000 O   0  0  0  0  0  0  0  0  0  0  0  0
    9.6448   -3.8080    0.0000 O   0  0  0  0  0  0  0  0  0  0  0  0
   13.1090   -0.8080    0.0000 O   0  0  0  0  0  0  0  0  0  0  0  0
   12.2429    0.6920    0.0000 O   0  0  0  0  0  0  0  0  0  0  0  0
    7.0468    0.6920    0.0000 N   0  0  0  0  0  0  0  0  0  0  0  0
    5.3147    2.6920    0.0000 N   0  0  0  0  0  0  0  0  0  0  0  0
    8.7788   -0.3080    0.0000 N   0  0  0  0  0  0  0  0  0  0  0  0
    2.6691    2.2853    0.0000 N   0  0  0  0  0  0  0  0  0  0  0  0
   11.3769   -3.8080    0.0000 N   0  0  0  0  0  0  0  0  0  0  0  0
    6.1808    2.1920    0.0000 C   0  0  1  0  0  0  0  0  0  0  0  0
    7.0468    2.6920    0.0000 C   0  0  0  0  0  0  0  0  0  0  0  0
    7.0468   -0.3080    0.0000 C   0  0  1  0  0  0  0  0  0  0  0  0
    7.0468    3.6920    0.0000 C   0  0  0  0  0  0  0  0  0  0  0  0
    6.1808    1.1920    0.0000 C   0  0  0  0  0  0  0  0  0  0  0  0
    6.1808   -0.8080    0.0000 C   0  0  0  0  0  0  0  0  0  0  0  0
    7.9128   -0.8080    0.0000 C   0  0  0  0  0  0  0  0  0  0  0  0
    7.9128    4.1920    0.0000 C   0  0  0  0  0  0  0  0  0  0  0  0
    6.1808    4.1920    0.0000 C   0  0  0  0  0  0  0  0  0  0  0  0
    9.6448   -0.8080    0.0000 C   0  0  1  0  0  0  0  0  0  0  0  0
    7.9128    1.1920    0.0000 C   0  0  0  0  0  0  0  0  0  0  0  0
    6.1808   -1.8080    0.0000 C   0  0  0  0  0  0  0  0  0  0  0  0
    9.6448   -1.8080    0.0000 C   0  0  0  0  0  0  0  0  0  0  0  0
    4.4487    2.1920    0.0000 C   0  0  0  0  0  0  0  0  0  0  0  0
   10.5109   -2.3080    0.0000 C   0  0  0  0  0  0  0  0  0  0  0  0
   10.5109   -0.3080    0.0000 C   0  0  0  0  0  0  0  0  0  0  0  0
    7.0468   -2.3080    0.0000 C   0  0  0  0  0  0  0  0  0  0  0  0
    5.3147   -2.3080    0.0000 C   0  0  0  0  0  0  0  0  0  0  0  0
    3.5827    2.6920    0.0000 C   0  0  0  0  0  0  0  0  0  0  0  0
    7.0468   -3.3080    0.0000 C   0  0  0  0  0  0  0  0  0  0  0  0
    5.3147   -3.3080    0.0000 C   0  0  0  0  0  0  0  0  0  0  0  0
    6.1808   -3.8080    0.0000 C   0  0  0  0  0  0  0  0  0  0  0  0
   10.5109   -3.3080    0.0000 C   0  0  0  0  0  0  0  0  0  0  0  0
   11.3769   -0.8080    0.0000 C   0  0  0  0  0  0  0  0  0  0  0  0
    3.4782    3.6865    0.0000 C   0  0  0  0  0  0  0  0  0  0  0  0
    2.5000    3.8944    0.0000 C   0  0  0  0  0  0  0  0  0  0  0  0
   12.2429   -0.3080    0.0000 C   0  0  0  0  0  0  0  0  0  0  0  0
    2.0933    4.8080    0.0000 C   0  0  0  0  0  0  0  0  0  0  0  0
   13.9750   -0.3080    0.0000 C   0  0  0  0  0  0  0  0  0  0  0  0
   14.8410   -0.8080    0.0000 C   0  0  0  0  0  0  0  0  0  0  0  0
    6.1808    2.8120    0.0000 H   0  0  0  0  0  0  0  0  0  0  0  0
    7.2588    2.1094    0.0000 H   0  0  0  0  0  0  0  0  0  0  0  0
    7.6574    2.7997    0.0000 H   0  0  0  0  0  0  0  0  0  0  0  0
    7.5837    0.0020    0.0000 H   0  0  0  0  0  0  0  0  0  0  0  0
    7.0468    4.3120    0.0000 H   0  0  0  0  0  0  0  0  0  0  0  0
    5.9687   -0.2254    0.0000 H   0  0  0  0  0  0  0  0  0  0  0  0
    5.5702   -0.9157    0.0000 H   0  0  0  0  0  0  0  0  0  0  0  0
    5.3147    3.3120    0.0000 H   0  0  0  0  0  0  0  0  0  0  0  0
    8.2228    3.6551    0.0000 H   0  0  0  0  0  0  0  0  0  0  0  0
    8.4497    4.5020    0.0000 H   0  0  0  0  0  0  0  0  0  0  0  0
    7.6028    4.7290    0.0000 H   0  0  0  0  0  0  0  0  0  0  0  0
    6.4908    4.7290    0.0000 H   0  0  0  0  0  0  0  0  0  0  0  0
    5.6438    4.5020    0.0000 H   0  0  0  0  0  0  0  0  0  0  0  0
    5.8708    3.6551    0.0000 H   0  0  0  0  0  0  0  0  0  0  0  0
    9.1079   -1.1180    0.0000 H   0  0  0  0  0  0  0  0  0  0  0  0
    8.2228    0.6551    0.0000 H   0  0  0  0  0  0  0  0  0  0  0  0
    8.4497    1.5020    0.0000 H   0  0  0  0  0  0  0  0  0  0  0  0
    7.6028    1.7290    0.0000 H   0  0  0  0  0  0  0  0  0  0  0  0
    8.7788    0.3120    0.0000 H   0  0  0  0  0  0  0  0  0  0  0  0
    9.0343   -1.7003    0.0000 H   0  0  0  0  0  0  0  0  0  0  0  0
    9.4328   -2.3906    0.0000 H   0  0  0  0  0  0  0  0  0  0  0  0
   11.1215   -2.4156    0.0000 H   0  0  0  0  0  0  0  0  0  0  0  0
   10.7229   -1.7254    0.0000 H   0  0  0  0  0  0  0  0  0  0  0  0
   10.5109    0.3120    0.0000 H   0  0  0  0  0  0  0  0  0  0  0  0
    7.5837   -1.9980    0.0000 H   0  0  0  0  0  0  0  0  0  0  0  0
    4.7778   -1.9980    0.0000 H   0  0  0  0  0  0  0  0  0  0  0  0
    7.5837   -3.6180    0.0000 H   0  0  0  0  0  0  0  0  0  0  0  0
    4.7778   -3.6180    0.0000 H   0  0  0  0  0  0  0  0  0  0  0  0
   11.3769   -1.4280    0.0000 H   0  0  0  0  0  0  0  0  0  0  0  0
    3.9389    4.1014    0.0000 H   0  0  0  0  0  0  0  0  0  0  0  0
   11.3769   -4.4280    0.0000 H   0  0  0  0  0  0  0  0  0  0  0  0
   11.9138   -3.4980    0.0000 H   0  0  0  0  0  0  0  0  0  0  0  0
    2.6597    5.0602    0.0000 H   0  0  0  0  0  0  0  0  0  0  0  0
    1.8411    5.3744    0.0000 H   0  0  0  0  0  0  0  0  0  0  0  0
    1.5269    4.5558    0.0000 H   0  0  0  0  0  0  0  0  0  0  0  0
   14.3735    0.1670    0.0000 H   0  0  0  0  0  0  0  0  0  0  0  0
   13.5765    0.1670    0.0000 H   0  0  0  0  0  0  0  0  0  0  0  0
   14.5310   -1.3449    0.0000 H   0  0  0  0  0  0  0  0  0  0  0  0
   15.3779   -1.1180    0.0000 H   0  0  0  0  0  0  0  0  0  0  0  0
   15.1510   -0.2711    0.0000 H   0  0  0  0  0  0  0  0  0  0  0  0
  1 35  1  0  0  0  0
  2 18  2  0  0  0  0
  3 20  2  0  0  0  0
  4 27  2  0  0  0  0
  5 12  1  0  0  0  0
  5 39  1  0  0  0  0
  6 36  2  0  0  0  0
  7 40  1  0  0  0  0
  7 42  1  0  0  0  0
  8 40  2  0  0  0  0
 16  9  1  6  0  0  0
  9 18  1  0  0  0  0
  9 24  1  0  0  0  0
 14 10  1  1  0  0  0
 10 27  1  0  0  0  0
 10 51  1  0  0  0  0
 11 20  1  0  0  0  0
 23 11  1  6  0  0  0
 11 62  1  0  0  0  0
 12 32  2  0  0  0  0
 13 36  1  0  0  0  0
 13 74  1  0  0  0  0
 13 75  1  0  0  0  0
 14 15  1  0  0  0  0
 14 18  1  0  0  0  0
 14 44  1  0  0  0  0
 15 17  1  0  0  0  0
 15 45  1  0  0  0  0
 15 46  1  0  0  0  0
 16 19  1  0  0  0  0
 16 20  1  0  0  0  0
 16 47  1  0  0  0  0
 17 21  1  0  0  0  0
 17 22  1  0  0  0  0
 17 48  1  0  0  0  0
 19 25  1  0  0  0  0
 19 49  1  0  0  0  0
 19 50  1  0  0  0  0
 21 52  1  0  0  0  0
 21 53  1  0  0  0  0
 21 54  1  0  0  0  0
 22 55  1  0  0  0  0
 22 56  1  0  0  0  0
 22 57  1  0  0  0  0
 23 26  1  0  0  0  0
 23 29  1  0  0  0  0
 23 58  1  0  0  0  0
 24 59  1  0  0  0  0
 24 60  1  0  0  0  0
 24 61  1  0  0  0  0
 25 30  2  0  0  0  0
 25 31  1  0  0  0  0
 26 28  1  0  0  0  0
 26 63  1  0  0  0  0
 26 64  1  0  0  0  0
 27 32  1  0  0  0  0
 28 36  1  0  0  0  0
 28 65  1  0  0  0  0
 28 66  1  0  0  0  0
 29 37  2  0  0  0  0
 29 67  1  0  0  0  0
 30 33  1  0  0  0  0
 30 68  1  0  0  0  0
 31 34  2  0  0  0  0
 31 69  1  0  0  0  0
 32 38  1  0  0  0  0
 33 35  2  0  0  0  0
 33 70  1  0  0  0  0
 34 35  1  0  0  0  0
 34 71  1  0  0  0  0
 37 40  1  0  0  0  0
 37 72  1  0  0  0  0
 38 39  2  0  0  0  0
 38 73  1  0  0  0  0
 39 41  1  0  0  0  0
 41 76  1  0  0  0  0
 41 77  1  0  0  0  0
 41 78  1  0  0  0  0
 42 43  1  0  0  0  0
 42 79  1  0  0  0  0
 42 80  1  0  0  0  0
 43 81  1  0  0  0  0
 43 82  1  0  0  0  0
 43 83  1  0  0  0  0
M  END
> <PUBCHEM_COMPOUND_CID>
15547374

> <PUBCHEM_COMPOUND_CANONICALIZED>
1

> <PUBCHEM_CACTVS_COMPLEXITY>
986

> <PUBCHEM_CACTVS_HBOND_ACCEPTOR>
9

> <PUBCHEM_CACTVS_HBOND_DONOR>
3

> <PUBCHEM_CACTVS_ROTATABLE_BOND>
17

> <PUBCHEM_CACTVS_SUBSKEYS>
AAADcfB7uQAAAAAAAAAAAAAAAAAAAWAAAAAwAAAAAAAAAAABwAAAHwAUAAAADSzhng4yjJPQBACpA6XyWgCCAAAmIgAomKG+bNoIZjqAtbOWMYhmlhiI6cc/iICOAAAAAAAAAAAAAAAAAAAAAAAAAAAAAA==

> <PUBCHEM_IUPAC_OPENEYE_NAME>
ethyl (E,4S)-7-amino-4-[[(2S)-3-(4-fluorophenyl)-2-[methyl-[(2S)-4-methyl-2-[(5-methylisoxazole-3-carbonyl)amino]pentanoyl]amino]propanoyl]amino]-7-oxo-hept-2-enoate

> <PUBCHEM_IUPAC_CAS_NAME>
(E,4S)-7-amino-4-[[(2S)-3-(4-fluorophenyl)-2-[methyl-[(2S)-4-methyl-2-[[(5-methyl-3-isoxazolyl)-oxomethyl]amino]-1-oxopentyl]amino]-1-oxopropyl]amino]-7-oxo-2-heptenoic acid ethyl ester

> <PUBCHEM_IUPAC_NAME_MARKUP>
ethyl (<I>E</I>,4<I>S</I>)-7-amino-4-[[(2<I>S</I>)-3-(4-fluorophenyl)-2-[methyl-[(2<I>S</I>)-4-methyl-2-[(5-methyl-1,2-oxazole-3-carbonyl)amino]pentanoyl]amino]propanoyl]amino]-7-oxohept-2-enoate

> <PUBCHEM_IUPAC_NAME>
ethyl (E,4S)-7-amino-4-[[(2S)-3-(4-fluorophenyl)-2-[methyl-[(2S)-4-methyl-2-[(5-methyl-1,2-oxazole-3-carbonyl)amino]pentanoyl]amino]propanoyl]amino]-7-oxohept-2-enoate

> <PUBCHEM_IUPAC_SYSTEMATIC_NAME>
ethyl (E,4S)-7-azanyl-4-[[(2S)-3-(4-fluorophenyl)-2-[methyl-[(2S)-4-methyl-2-[(5-methyl-1,2-oxazol-3-yl)carbonylamino]pentanoyl]amino]propanoyl]amino]-7-oxidanylidene-hept-2-enoate

> <PUBCHEM_IUPAC_TRADITIONAL_NAME>
(E,4S)-7-amino-4-[[(2S)-3-(4-fluorophenyl)-2-[methyl-[(2S)-4-methyl-2-[(5-methylisoxazole-3-carbonyl)amino]pentanoyl]amino]propanoyl]amino]-7-keto-hept-2-enoic acid ethyl ester

> <PUBCHEM_IUPAC_INCHI>
InChI=1S/C30H40FN5O7/c1-6-42-27(38)14-12-22(11-13-26(32)37)33-29(40)25(17-20-7-9-21(31)10-8-20)36(5)30(41)24(15-18(2)3)34-28(39)23-16-19(4)43-35-23/h7-10,12,14,16,18,22,24-25H,6,11,13,15,17H2,1-5H3,(H2,32,37)(H,33,40)(H,34,39)/b14-12+/t22-,24-,25-/m0/s1

> <PUBCHEM_IUPAC_INCHIKEY>
SBFKUKHKIOGZJR-XNCNTFHWSA-N

> <PUBCHEM_XLOGP3_AA>
2.8

> <PUBCHEM_EXACT_MASS>
601.291177

> <PUBCHEM_MOLECULAR_FORMULA>
C30H40FN5O7

> <PUBCHEM_MOLECULAR_WEIGHT>
601.7

> <PUBCHEM_OPENEYE_CAN_SMILES>
CCOC(=O)C=CC(CCC(=O)N)NC(=O)C(CC1=CC=C(C=C1)F)N(C)C(=O)C(CC(C)C)NC(=O)C2=NOC(=C2)C

> <PUBCHEM_OPENEYE_ISO_SMILES>
CCOC(=O)/C=C/[C@H](CCC(=O)N)NC(=O)[C@H](CC1=CC=C(C=C1)F)N(C)C(=O)[C@H](CC(C)C)NC(=O)C2=NOC(=C2)C

> <PUBCHEM_CACTVS_TPSA>
174

> <PUBCHEM_MONOISOTOPIC_WEIGHT>
601.291177

> <PUBCHEM_TOTAL_CHARGE>
0

> <PUBCHEM_HEAVY_ATOM_COUNT>
43

> <PUBCHEM_ATOM_DEF_STEREO_COUNT>
3

> <PUBCHEM_ATOM_UDEF_STEREO_COUNT>
0

> <PUBCHEM_BOND_DEF_STEREO_COUNT>
1

> <PUBCHEM_BOND_UDEF_STEREO_COUNT>
0

> <PUBCHEM_ISOTOPIC_ATOM_COUNT>
0

> <PUBCHEM_COMPONENT_COUNT>
1

> <PUBCHEM_CACTVS_TAUTO_COUNT>
-1

> <PUBCHEM_COORDINATE_TYPE>
1
5
255

> <PUBCHEM_BONDANNOTATIONS>
14  10  5
23  11  6
12  32  8
25  30  8
25  31  8
30  33  8
31  34  8
32  38  8
33  35  8
34  35  8
38  39  8
5  12  8
5  39  8
16  9  6

$$$$
15954032
  -OEChem-02212016592D

 82 84  0     1  0  0  0  0  0999 V2000
    5.4641   -5.2702    0.0000 F   0  0  0  0  0  0  0  0  0  0  0  0
    8.0902    3.5086    0.0000 O   0  0  0  0  0  0  0  0  0  0  0  0
    7.1962    0.7298    0.0000 O   0  0  0  0  0  0  0  0  0  0  0  0
    8.0622    0.2298    0.0000 O   0  0  0  0  0  0  0  0  0  0  0  0
    2.8660    3.2298    0.0000 O   0  0  0  0  0  0  0  0  0  0  0  0
   10.6603   -2.2702    0.0000 O   0  0  0  0  0  0  0  0  0  0  0  0
    2.0000    1.7298    0.0000 O   0  0  0  0  0  0  0  0  0  0  0  0
   12.6090    0.4322    0.0000 O   0  0  0  0  0  0  0  0  0  0  0  0
    6.8301    4.7686    0.0000 N   0  0  0  0  0  0  0  0  0  0  0  0
    5.4641    0.7298    0.0000 N   0  0  0  0  0  0  0  0  0  0  0  0
    9.7942   -0.7702    0.0000 N   0  0  0  0  0  0  0  0  0  0  0  0
   11.6308    0.2243    0.0000 N   0  0  0  0  0  0  0  0  0  0  0  0
    6.3301    3.2298    0.0000 C   0  0  2  0  0  0  0  0  0  0  0  0
    6.3301    2.2298    0.0000 C   0  0  0  0  0  0  0  0  0  0  0  0
    5.5211    3.8176    0.0000 C   0  0  0  0  0  0  0  0  0  0  0  0
    5.4641    1.7298    0.0000 C   0  0  1  0  0  0  0  0  0  0  0  0
    5.8301    4.7686    0.0000 C   0  0  0  0  0  0  0  0  0  0  0  0
    7.1391    3.8176    0.0000 C   0  0  0  0  0  0  0  0  0  0  0  0
    6.3301   -0.7702    0.0000 C   0  0  2  0  0  0  0  0  0  0  0  0
    7.1962   -1.2702    0.0000 C   0  0  0  0  0  0  0  0  0  0  0  0
    6.3301    0.2298    0.0000 C   0  0  0  0  0  0  0  0  0  0  0  0
    8.9282   -1.2702    0.0000 C   0  0  2  0  0  0  0  0  0  0  0  0
    5.4641   -1.2702    0.0000 C   0  0  0  0  0  0  0  0  0  0  0  0
    8.9282   -2.2702    0.0000 C   0  0  0  0  0  0  0  0  0  0  0  0
    8.0622   -0.7702    0.0000 C   0  0  0  0  0  0  0  0  0  0  0  0
    4.5981    2.2298    0.0000 C   0  0  0  0  0  0  0  0  0  0  0  0
    5.4641   -2.2702    0.0000 C   0  0  0  0  0  0  0  0  0  0  0  0
    9.7942   -2.7702    0.0000 C   0  0  0  0  0  0  0  0  0  0  0  0
    8.0622   -2.7702    0.0000 C   0  0  0  0  0  0  0  0  0  0  0  0
    3.7320    1.7298    0.0000 C   0  0  0  0  0  0  0  0  0  0  0  0
    6.3301   -2.7702    0.0000 C   0  0  0  0  0  0  0  0  0  0  0  0
    4.5981   -2.7702    0.0000 C   0  0  0  0  0  0  0  0  0  0  0  0
   10.6603   -1.2702    0.0000 C   0  0  0  0  0  0  0  0  0  0  0  0
    2.8660    2.2298    0.0000 C   0  0  0  0  0  0  0  0  0  0  0  0
    6.3301   -3.7702    0.0000 C   0  0  0  0  0  0  0  0  0  0  0  0
    4.5981   -3.7702    0.0000 C   0  0  0  0  0  0  0  0  0  0  0  0
   11.5263   -0.7702    0.0000 C   0  0  0  0  0  0  0  0  0  0  0  0
    5.4641   -4.2702    0.0000 C   0  0  0  0  0  0  0  0  0  0  0  0
   12.4398   -1.1770    0.0000 C   0  0  0  0  0  0  0  0  0  0  0  0
   13.1090   -0.4338    0.0000 C   0  0  0  0  0  0  0  0  0  0  0  0
    2.0000    3.7298    0.0000 C   0  0  0  0  0  0  0  0  0  0  0  0
   14.1035   -0.5383    0.0000 C   0  0  0  0  0  0  0  0  0  0  0  0
    2.0000    4.7298    0.0000 C   0  0  0  0  0  0  0  0  0  0  0  0
    6.8826    2.9483    0.0000 H   0  0  0  0  0  0  0  0  0  0  0  0
    6.5422    1.6472    0.0000 H   0  0  0  0  0  0  0  0  0  0  0  0
    6.9407    2.3374    0.0000 H   0  0  0  0  0  0  0  0  0  0  0  0
    4.9547    4.0698    0.0000 H   0  0  0  0  0  0  0  0  0  0  0  0
    5.2111    3.2806    0.0000 H   0  0  0  0  0  0  0  0  0  0  0  0
    6.0010    1.4198    0.0000 H   0  0  0  0  0  0  0  0  0  0  0  0
    5.8949    5.3852    0.0000 H   0  0  0  0  0  0  0  0  0  0  0  0
    5.2237    4.8975    0.0000 H   0  0  0  0  0  0  0  0  0  0  0  0
    6.8671   -0.4602    0.0000 H   0  0  0  0  0  0  0  0  0  0  0  0
    7.1946    5.2702    0.0000 H   0  0  0  0  0  0  0  0  0  0  0  0
    6.7976   -1.7452    0.0000 H   0  0  0  0  0  0  0  0  0  0  0  0
    7.5947   -1.7452    0.0000 H   0  0  0  0  0  0  0  0  0  0  0  0
    4.9272    0.4198    0.0000 H   0  0  0  0  0  0  0  0  0  0  0  0
    8.9282   -0.6502    0.0000 H   0  0  0  0  0  0  0  0  0  0  0  0
    5.2520   -0.6876    0.0000 H   0  0  0  0  0  0  0  0  0  0  0  0
    4.8535   -1.3779    0.0000 H   0  0  0  0  0  0  0  0  0  0  0  0
    9.4651   -1.9602    0.0000 H   0  0  0  0  0  0  0  0  0  0  0  0
    4.5981    2.8498    0.0000 H   0  0  0  0  0  0  0  0  0  0  0  0
    9.7942   -0.1502    0.0000 H   0  0  0  0  0  0  0  0  0  0  0  0
    9.4842   -3.3072    0.0000 H   0  0  0  0  0  0  0  0  0  0  0  0
   10.3312   -3.0802    0.0000 H   0  0  0  0  0  0  0  0  0  0  0  0
   10.1042   -2.2333    0.0000 H   0  0  0  0  0  0  0  0  0  0  0  0
    7.7522   -2.2333    0.0000 H   0  0  0  0  0  0  0  0  0  0  0  0
    7.5252   -3.0802    0.0000 H   0  0  0  0  0  0  0  0  0  0  0  0
    8.3722   -3.3072    0.0000 H   0  0  0  0  0  0  0  0  0  0  0  0
    3.7320    1.1098    0.0000 H   0  0  0  0  0  0  0  0  0  0  0  0
    6.8671   -2.4602    0.0000 H   0  0  0  0  0  0  0  0  0  0  0  0
    4.0611   -2.4602    0.0000 H   0  0  0  0  0  0  0  0  0  0  0  0
    6.8671   -4.0802    0.0000 H   0  0  0  0  0  0  0  0  0  0  0  0
    4.0611   -4.0802    0.0000 H   0  0  0  0  0  0  0  0  0  0  0  0
   12.5687   -1.7834    0.0000 H   0  0  0  0  0  0  0  0  0  0  0  0
    1.3894    3.8374    0.0000 H   0  0  0  0  0  0  0  0  0  0  0  0
    1.7880    3.1472    0.0000 H   0  0  0  0  0  0  0  0  0  0  0  0
   14.0387   -1.1549    0.0000 H   0  0  0  0  0  0  0  0  0  0  0  0
   14.7201   -0.6031    0.0000 H   0  0  0  0  0  0  0  0  0  0  0  0
   14.1683    0.0783    0.0000 H   0  0  0  0  0  0  0  0  0  0  0  0
    2.6200    4.7298    0.0000 H   0  0  0  0  0  0  0  0  0  0  0  0
    2.0000    5.3498    0.0000 H   0  0  0  0  0  0  0  0  0  0  0  0
    1.3800    4.7298    0.0000 H   0  0  0  0  0  0  0  0  0  0  0  0
  1 38  1  0  0  0  0
  2 18  2  0  0  0  0
  3 21  2  0  0  0  0
  4 25  2  0  0  0  0
  5 34  1  0  0  0  0
  5 41  1  0  0  0  0
  6 33  2  0  0  0  0
  7 34  2  0  0  0  0
  8 12  1  0  0  0  0
  8 40  1  0  0  0  0
  9 17  1  0  0  0  0
  9 18  1  0  0  0  0
  9 53  1  0  0  0  0
 16 10  1  6  0  0  0
 10 21  1  0  0  0  0
 10 56  1  0  0  0  0
 22 11  1  6  0  0  0
 11 33  1  0  0  0  0
 11 62  1  0  0  0  0
 12 37  2  0  0  0  0
 13 14  1  6  0  0  0
 13 15  1  0  0  0  0
 13 18  1  0  0  0  0
 13 44  1  0  0  0  0
 14 16  1  0  0  0  0
 14 45  1  0  0  0  0
 14 46  1  0  0  0  0
 15 17  1  0  0  0  0
 15 47  1  0  0  0  0
 15 48  1  0  0  0  0
 16 26  1  0  0  0  0
 16 49  1  0  0  0  0
 17 50  1  0  0  0  0
 17 51  1  0  0  0  0
 19 20  1  1  0  0  0
 19 21  1  0  0  0  0
 19 23  1  0  0  0  0
 19 52  1  0  0  0  0
 20 25  1  0  0  0  0
 20 54  1  0  0  0  0
 20 55  1  0  0  0  0
 22 24  1  0  0  0  0
 22 25  1  0  0  0  0
 22 57  1  0  0  0  0
 23 27  1  0  0  0  0
 23 58  1  0  0  0  0
 23 59  1  0  0  0  0
 24 28  1  0  0  0  0
 24 29  1  0  0  0  0
 24 60  1  0  0  0  0
 26 30  2  0  0  0  0
 26 61  1  0  0  0  0
 27 31  2  0  0  0  0
 27 32  1  0  0  0  0
 28 63  1  0  0  0  0
 28 64  1  0  0  0  0
 28 65  1  0  0  0  0
 29 66  1  0  0  0  0
 29 67  1  0  0  0  0
 29 68  1  0  0  0  0
 30 34  1  0  0  0  0
 30 69  1  0  0  0  0
 31 35  1  0  0  0  0
 31 70  1  0  0  0  0
 32 36  2  0  0  0  0
 32 71  1  0  0  0  0
 33 37  1  0  0  0  0
 35 38  2  0  0  0  0
 35 72  1  0  0  0  0
 36 38  1  0  0  0  0
 36 73  1  0  0  0  0
 37 39  1  0  0  0  0
 39 40  2  0  0  0  0
 39 74  1  0  0  0  0
 40 42  1  0  0  0  0
 41 43  1  0  0  0  0
 41 75  1  0  0  0  0
 41 76  1  0  0  0  0
 42 77  1  0  0  0  0
 42 78  1  0  0  0  0
 42 79  1  0  0  0  0
 43 80  1  0  0  0  0
 43 81  1  0  0  0  0
 43 82  1  0  0  0  0
M  END
> <PUBCHEM_COMPOUND_CID>
15954032

> <PUBCHEM_COMPOUND_CANONICALIZED>
1

> <PUBCHEM_CACTVS_COMPLEXITY>
1010

> <PUBCHEM_CACTVS_HBOND_ACCEPTOR>
9

> <PUBCHEM_CACTVS_HBOND_DONOR>
3

> <PUBCHEM_CACTVS_ROTATABLE_BOND>
16

> <PUBCHEM_CACTVS_SUBSKEYS>
AAADcfB7uQAAAAAAAAAAAAAAAAAAAWLAAAAwAAAAAAAAAAABwAAAHwAUAAAADSzhng4yjJLQBACpA6XyWgCCAAAmIgAomKG+bNoIZjqAtbOWMYhmlhiI6cc/icCeAAAAAAAAAAAAAAAAAAAAAAAAAAAAAA==

> <PUBCHEM_IUPAC_OPENEYE_NAME>
ethyl (E,4S)-4-[[(2R,5R)-2-[(4-fluorophenyl)methyl]-6-methyl-5-[(5-methylisoxazole-3-carbonyl)amino]-4-oxo-heptanoyl]amino]-5-[(3S)-2-oxopyrrolidin-3-yl]pent-2-enoate

> <PUBCHEM_IUPAC_CAS_NAME>
(E,4S)-4-[[(2R,5R)-2-[(4-fluorophenyl)methyl]-6-methyl-5-[[(5-methyl-3-isoxazolyl)-oxomethyl]amino]-1,4-dioxoheptyl]amino]-5-[(3S)-2-oxo-3-pyrrolidinyl]-2-pentenoic acid ethyl ester

> <PUBCHEM_IUPAC_NAME_MARKUP>
ethyl (<I>E</I>,4<I>S</I>)-4-[[(2<I>R</I>,5<I>R</I>)-2-[(4-fluorophenyl)methyl]-6-methyl-5-[(5-methyl-1,2-oxazole-3-carbonyl)amino]-4-oxoheptanoyl]amino]-5-[(3<I>S</I>)-2-oxopyrrolidin-3-yl]pent-2-enoate

> <PUBCHEM_IUPAC_NAME>
ethyl (E,4S)-4-[[(2R,5R)-2-[(4-fluorophenyl)methyl]-6-methyl-5-[(5-methyl-1,2-oxazole-3-carbonyl)amino]-4-oxoheptanoyl]amino]-5-[(3S)-2-oxopyrrolidin-3-yl]pent-2-enoate

> <PUBCHEM_IUPAC_SYSTEMATIC_NAME>
ethyl (E,4S)-4-[[(2R,5R)-2-[(4-fluorophenyl)methyl]-6-methyl-5-[(5-methyl-1,2-oxazol-3-yl)carbonylamino]-4-oxidanylidene-heptanoyl]amino]-5-[(3S)-2-oxidanylidenepyrrolidin-3-yl]pent-2-enoate

> <PUBCHEM_IUPAC_TRADITIONAL_NAME>
(E,4S)-4-[[(2R,5R)-2-(4-fluorobenzyl)-4-keto-6-methyl-5-[(5-methylisoxazole-3-carbonyl)amino]heptanoyl]amino]-5-[(3S)-2-ketopyrrolidin-3-yl]pent-2-enoic acid ethyl ester

> <PUBCHEM_IUPAC_INCHI>
InChI=1S/C31H39FN4O7/c1-5-42-27(38)11-10-24(16-21-12-13-33-29(21)39)34-30(40)22(15-20-6-8-23(32)9-7-20)17-26(37)28(18(2)3)35-31(41)25-14-19(4)43-36-25/h6-11,14,18,21-22,24,28H,5,12-13,15-17H2,1-4H3,(H,33,39)(H,34,40)(H,35,41)/b11-10+/t21-,22+,24+,28+/m0/s1

> <PUBCHEM_IUPAC_INCHIKEY>
CAYJBRBGZBCZKO-YVXKQXFXSA-N

> <PUBCHEM_XLOGP3_AA>
3.1

> <PUBCHEM_EXACT_MASS>
598.280278

> <PUBCHEM_MOLECULAR_FORMULA>
C31H39FN4O7

> <PUBCHEM_MOLECULAR_WEIGHT>
598.7

> <PUBCHEM_OPENEYE_CAN_SMILES>
CCOC(=O)C=CC(CC1CCNC1=O)NC(=O)C(CC2=CC=C(C=C2)F)CC(=O)C(C(C)C)NC(=O)C3=NOC(=C3)C

> <PUBCHEM_OPENEYE_ISO_SMILES>
CCOC(=O)/C=C/[C@H](C[C@@H]1CCNC1=O)NC(=O)[C@H](CC2=CC=C(C=C2)F)CC(=O)[C@@H](C(C)C)NC(=O)C3=NOC(=C3)C

> <PUBCHEM_CACTVS_TPSA>
157

> <PUBCHEM_MONOISOTOPIC_WEIGHT>
598.280278

> <PUBCHEM_TOTAL_CHARGE>
0

> <PUBCHEM_HEAVY_ATOM_COUNT>
43

> <PUBCHEM_ATOM_DEF_STEREO_COUNT>
4

> <PUBCHEM_ATOM_UDEF_STEREO_COUNT>
0

> <PUBCHEM_BOND_DEF_STEREO_COUNT>
1

> <PUBCHEM_BOND_UDEF_STEREO_COUNT>
0

> <PUBCHEM_ISOTOPIC_ATOM_COUNT>
0

> <PUBCHEM_COMPONENT_COUNT>
1

> <PUBCHEM_CACTVS_TAUTO_COUNT>
-1

> <PUBCHEM_COORDINATE_TYPE>
1
5
255

> <PUBCHEM_BONDANNOTATIONS>
16  10  6
22  11  6
12  37  8
13  14  6
19  20  5
27  31  8
27  32  8
31  35  8
32  36  8
35  38  8
36  38  8
37  39  8
39  40  8
8  12  8
8  40  8

$$$$
15954228
  -OEChem-02212016592D

 85 89  0     1  0  0  0  0  0999 V2000
    3.5827   -4.5580    0.0000 F   0  0  0  0  0  0  0  0  0  0  0  0
    5.3147   -5.5580    0.0000 F   0  0  0  0  0  0  0  0  0  0  0  0
   10.5109    1.4420    0.0000 O   0  0  0  0  0  0  0  0  0  0  0  0
    9.0062   -4.7216    0.0000 O   0  0  0  0  0  0  0  0  0  0  0  0
    7.0468   -2.5580    0.0000 O   0  0  0  0  0  0  0  0  0  0  0  0
   11.3769   -0.0580    0.0000 O   0  0  0  0  0  0  0  0  0  0  0  0
    4.4487   -0.0580    0.0000 O   0  0  0  0  0  0  0  0  0  0  0  0
    5.3147    3.4420    0.0000 O   0  0  0  0  0  0  0  0  0  0  0  0
    2.0000    3.7784    0.0000 O   0  0  0  0  0  0  0  0  0  0  0  0
   10.7275   -4.2604    0.0000 N   0  0  0  0  0  0  0  0  0  0  0  0
    7.9128   -1.0580    0.0000 N   0  0  0  0  0  0  0  0  0  0  0  0
    6.1808   -0.0580    0.0000 N   0  0  0  0  0  0  0  0  0  0  0  0
    4.4487    1.9420    0.0000 N   0  0  0  0  0  0  0  0  0  0  0  0
    2.6691    3.0353    0.0000 N   0  0  0  0  0  0  0  0  0  0  0  0
    9.6448   -3.0580    0.0000 C   0  0  2  0  0  0  0  0  0  0  0  0
   11.3769    1.9420    0.0000 C   0  0  0  0  0  0  0  0  0  0  0  0
    8.7788   -2.5580    0.0000 C   0  0  0  0  0  0  0  0  0  0  0  0
   10.5584   -2.6512    0.0000 C   0  0  0  0  0  0  0  0  0  0  0  0
   11.3769    2.9420    0.0000 C   0  0  0  0  0  0  0  0  0  0  0  0
   12.2429    1.4420    0.0000 C   0  0  0  0  0  0  0  0  0  0  0  0
   12.2429    3.4420    0.0000 C   0  0  0  0  0  0  0  0  0  0  0  0
   13.1090    1.9420    0.0000 C   0  0  0  0  0  0  0  0  0  0  0  0
   13.1090    2.9420    0.0000 C   0  0  0  0  0  0  0  0  0  0  0  0
    8.7788   -1.5580    0.0000 C   0  0  1  0  0  0  0  0  0  0  0  0
   11.2275   -3.3944    0.0000 C   0  0  0  0  0  0  0  0  0  0  0  0
    9.7494   -4.0525    0.0000 C   0  0  0  0  0  0  0  0  0  0  0  0
    9.6448   -1.0580    0.0000 C   0  0  0  0  0  0  0  0  0  0  0  0
    6.1808   -1.0580    0.0000 C   0  0  2  0  0  0  0  0  0  0  0  0
    7.0468   -1.5580    0.0000 C   0  0  0  0  0  0  0  0  0  0  0  0
    9.6448   -0.0580    0.0000 C   0  0  0  0  0  0  0  0  0  0  0  0
   10.5109    0.4420    0.0000 C   0  0  0  0  0  0  0  0  0  0  0  0
    5.3147   -1.5580    0.0000 C   0  0  0  0  0  0  0  0  0  0  0  0
    5.3147   -2.5580    0.0000 C   0  0  0  0  0  0  0  0  0  0  0  0
    5.3147    0.4420    0.0000 C   0  0  0  0  0  0  0  0  0  0  0  0
    7.0468    0.4420    0.0000 C   0  0  0  0  0  0  0  0  0  0  0  0
    5.3147    1.4420    0.0000 C   0  0  0  0  0  0  0  0  0  0  0  0
    4.4487   -3.0580    0.0000 C   0  0  0  0  0  0  0  0  0  0  0  0
    6.1808   -3.0580    0.0000 C   0  0  0  0  0  0  0  0  0  0  0  0
    7.0468    1.4420    0.0000 C   0  0  0  0  0  0  0  0  0  0  0  0
    6.1808    1.9420    0.0000 C   0  0  0  0  0  0  0  0  0  0  0  0
    4.4487   -4.0580    0.0000 C   0  0  0  0  0  0  0  0  0  0  0  0
    6.1808   -4.0580    0.0000 C   0  0  0  0  0  0  0  0  0  0  0  0
    5.3147   -4.5580    0.0000 C   0  0  0  0  0  0  0  0  0  0  0  0
    4.4487    2.9420    0.0000 C   0  0  0  0  0  0  0  0  0  0  0  0
    3.5827    3.4420    0.0000 C   0  0  0  0  0  0  0  0  0  0  0  0
    3.4782    4.4365    0.0000 C   0  0  0  0  0  0  0  0  0  0  0  0
    2.5000    4.6444    0.0000 C   0  0  0  0  0  0  0  0  0  0  0  0
    2.0933    5.5580    0.0000 C   0  0  0  0  0  0  0  0  0  0  0  0
    9.1249   -3.3957    0.0000 H   0  0  0  0  0  0  0  0  0  0  0  0
   10.8400    2.2520    0.0000 H   0  0  0  0  0  0  0  0  0  0  0  0
    8.1682   -2.4503    0.0000 H   0  0  0  0  0  0  0  0  0  0  0  0
    8.5668   -3.1406    0.0000 H   0  0  0  0  0  0  0  0  0  0  0  0
   11.0600   -2.2868    0.0000 H   0  0  0  0  0  0  0  0  0  0  0  0
   10.2484   -2.1143    0.0000 H   0  0  0  0  0  0  0  0  0  0  0  0
   11.1649    3.5246    0.0000 H   0  0  0  0  0  0  0  0  0  0  0  0
   10.7663    2.8344    0.0000 H   0  0  0  0  0  0  0  0  0  0  0  0
   11.8444    0.9671    0.0000 H   0  0  0  0  0  0  0  0  0  0  0  0
   12.6415    0.9671    0.0000 H   0  0  0  0  0  0  0  0  0  0  0  0
   12.6415    3.9170    0.0000 H   0  0  0  0  0  0  0  0  0  0  0  0
   11.8444    3.9170    0.0000 H   0  0  0  0  0  0  0  0  0  0  0  0
   13.3210    1.3594    0.0000 H   0  0  0  0  0  0  0  0  0  0  0  0
   13.7195    2.0497    0.0000 H   0  0  0  0  0  0  0  0  0  0  0  0
   13.7195    2.8344    0.0000 H   0  0  0  0  0  0  0  0  0  0  0  0
   13.3210    3.5246    0.0000 H   0  0  0  0  0  0  0  0  0  0  0  0
    8.2419   -1.8680    0.0000 H   0  0  0  0  0  0  0  0  0  0  0  0
   11.7291   -3.7588    0.0000 H   0  0  0  0  0  0  0  0  0  0  0  0
   11.6424   -2.9336    0.0000 H   0  0  0  0  0  0  0  0  0  0  0  0
   10.9797   -4.8268    0.0000 H   0  0  0  0  0  0  0  0  0  0  0  0
    7.9128   -0.4380    0.0000 H   0  0  0  0  0  0  0  0  0  0  0  0
   10.1818   -1.3680    0.0000 H   0  0  0  0  0  0  0  0  0  0  0  0
    6.7177   -0.7480    0.0000 H   0  0  0  0  0  0  0  0  0  0  0  0
    9.1079    0.2520    0.0000 H   0  0  0  0  0  0  0  0  0  0  0  0
    5.1027   -0.9754    0.0000 H   0  0  0  0  0  0  0  0  0  0  0  0
    4.7042   -1.6656    0.0000 H   0  0  0  0  0  0  0  0  0  0  0  0
    7.5837    0.1320    0.0000 H   0  0  0  0  0  0  0  0  0  0  0  0
    3.9118   -2.7480    0.0000 H   0  0  0  0  0  0  0  0  0  0  0  0
    6.7177   -2.7480    0.0000 H   0  0  0  0  0  0  0  0  0  0  0  0
    7.5837    1.7520    0.0000 H   0  0  0  0  0  0  0  0  0  0  0  0
    6.1808    2.5620    0.0000 H   0  0  0  0  0  0  0  0  0  0  0  0
    6.7177   -4.3680    0.0000 H   0  0  0  0  0  0  0  0  0  0  0  0
    3.9118    1.6320    0.0000 H   0  0  0  0  0  0  0  0  0  0  0  0
    3.9389    4.8514    0.0000 H   0  0  0  0  0  0  0  0  0  0  0  0
    2.6597    5.8102    0.0000 H   0  0  0  0  0  0  0  0  0  0  0  0
    1.8411    6.1244    0.0000 H   0  0  0  0  0  0  0  0  0  0  0  0
    1.5269    5.3058    0.0000 H   0  0  0  0  0  0  0  0  0  0  0  0
  1 41  1  0  0  0  0
  2 43  1  0  0  0  0
  3 16  1  0  0  0  0
  3 31  1  0  0  0  0
  4 26  2  0  0  0  0
  5 29  2  0  0  0  0
  6 31  2  0  0  0  0
  7 34  2  0  0  0  0
  8 44  2  0  0  0  0
  9 14  1  0  0  0  0
  9 47  1  0  0  0  0
 10 25  1  0  0  0  0
 10 26  1  0  0  0  0
 10 68  1  0  0  0  0
 24 11  1  6  0  0  0
 11 29  1  0  0  0  0
 11 69  1  0  0  0  0
 12 28  1  0  0  0  0
 12 34  1  0  0  0  0
 12 35  1  0  0  0  0
 13 36  1  0  0  0  0
 13 44  1  0  0  0  0
 13 81  1  0  0  0  0
 14 45  2  0  0  0  0
 15 17  1  6  0  0  0
 15 18  1  0  0  0  0
 15 26  1  0  0  0  0
 15 49  1  0  0  0  0
 16 19  1  0  0  0  0
 16 20  1  0  0  0  0
 16 50  1  0  0  0  0
 17 24  1  0  0  0  0
 17 51  1  0  0  0  0
 17 52  1  0  0  0  0
 18 25  1  0  0  0  0
 18 53  1  0  0  0  0
 18 54  1  0  0  0  0
 19 21  1  0  0  0  0
 19 55  1  0  0  0  0
 19 56  1  0  0  0  0
 20 22  1  0  0  0  0
 20 57  1  0  0  0  0
 20 58  1  0  0  0  0
 21 23  1  0  0  0  0
 21 59  1  0  0  0  0
 21 60  1  0  0  0  0
 22 23  1  0  0  0  0
 22 61  1  0  0  0  0
 22 62  1  0  0  0  0
 23 63  1  0  0  0  0
 23 64  1  0  0  0  0
 24 27  1  0  0  0  0
 24 65  1  0  0  0  0
 25 66  1  0  0  0  0
 25 67  1  0  0  0  0
 27 30  2  0  0  0  0
 27 70  1  0  0  0  0
 28 29  1  6  0  0  0
 28 32  1  0  0  0  0
 28 71  1  0  0  0  0
 30 31  1  0  0  0  0
 30 72  1  0  0  0  0
 32 33  1  0  0  0  0
 32 73  1  0  0  0  0
 32 74  1  0  0  0  0
 33 37  2  0  0  0  0
 33 38  1  0  0  0  0
 34 36  1  0  0  0  0
 35 39  2  0  0  0  0
 35 75  1  0  0  0  0
 36 40  2  0  0  0  0
 37 41  1  0  0  0  0
 37 76  1  0  0  0  0
 38 42  2  0  0  0  0
 38 77  1  0  0  0  0
 39 40  1  0  0  0  0
 39 78  1  0  0  0  0
 40 79  1  0  0  0  0
 41 43  2  0  0  0  0
 42 43  1  0  0  0  0
 42 80  1  0  0  0  0
 44 45  1  0  0  0  0
 45 46  1  0  0  0  0
 46 47  2  0  0  0  0
 46 82  1  0  0  0  0
 47 48  1  0  0  0  0
 48 83  1  0  0  0  0
 48 84  1  0  0  0  0
 48 85  1  0  0  0  0
M  END
> <PUBCHEM_COMPOUND_CID>
15954228

> <PUBCHEM_COMPOUND_CANONICALIZED>
1

> <PUBCHEM_CACTVS_COMPLEXITY>
1300

> <PUBCHEM_CACTVS_HBOND_ACCEPTOR>
10

> <PUBCHEM_CACTVS_HBOND_DONOR>
3

> <PUBCHEM_CACTVS_ROTATABLE_BOND>
13

> <PUBCHEM_CACTVS_SUBSKEYS>
AAADcfB/uYAAAAAAAAAAAAAAAAAAAWLAAAAwYIAAAAAAAAABwAAAHwAUAAAADTzhng4yjJPQBACpA6X2WgCCAAAmIgAomKG+bNoIZjqAtbOWMYhmlhiI6ce/yICOAAAAAAAAAAAAAAAAAAAAAAAAAAAAAA==

> <PUBCHEM_IUPAC_OPENEYE_NAME>
cyclohexyl (E,4S)-4-[[(2S)-3-(3,4-difluorophenyl)-2-[3-[(5-methylisoxazole-3-carbonyl)amino]-2-oxo-1-pyridyl]propanoyl]amino]-5-[(3S)-2-oxopyrrolidin-3-yl]pent-2-enoate

> <PUBCHEM_IUPAC_CAS_NAME>
(E,4S)-4-[[(2S)-3-(3,4-difluorophenyl)-2-[3-[[(5-methyl-3-isoxazolyl)-oxomethyl]amino]-2-oxo-1-pyridinyl]-1-oxopropyl]amino]-5-[(3S)-2-oxo-3-pyrrolidinyl]-2-pentenoic acid cyclohexyl ester

> <PUBCHEM_IUPAC_NAME_MARKUP>
cyclohexyl (<I>E</I>,4<I>S</I>)-4-[[(2<I>S</I>)-3-(3,4-difluorophenyl)-2-[3-[(5-methyl-1,2-oxazole-3-carbonyl)amino]-2-oxopyridin-1-yl]propanoyl]amino]-5-[(3<I>S</I>)-2-oxopyrrolidin-3-yl]pent-2-enoate

> <PUBCHEM_IUPAC_NAME>
cyclohexyl (E,4S)-4-[[(2S)-3-(3,4-difluorophenyl)-2-[3-[(5-methyl-1,2-oxazole-3-carbonyl)amino]-2-oxopyridin-1-yl]propanoyl]amino]-5-[(3S)-2-oxopyrrolidin-3-yl]pent-2-enoate

> <PUBCHEM_IUPAC_SYSTEMATIC_NAME>
cyclohexyl (E,4S)-4-[[(2S)-3-[3,4-bis(fluoranyl)phenyl]-2-[3-[(5-methyl-1,2-oxazol-3-yl)carbonylamino]-2-oxidanylidene-pyridin-1-yl]propanoyl]amino]-5-[(3S)-2-oxidanylidenepyrrolidin-3-yl]pent-2-enoate

> <PUBCHEM_IUPAC_TRADITIONAL_NAME>
(E,4S)-4-[[(2S)-3-(3,4-difluorophenyl)-2-[2-keto-3-[(5-methylisoxazole-3-carbonyl)amino]-1-pyridyl]propanoyl]amino]-5-[(3S)-2-ketopyrrolidin-3-yl]pent-2-enoic acid cyclohexyl ester

> <PUBCHEM_IUPAC_INCHI>
InChI=1S/C34H37F2N5O7/c1-20-16-28(40-48-20)32(44)39-27-8-5-15-41(34(27)46)29(18-21-9-11-25(35)26(36)17-21)33(45)38-23(19-22-13-14-37-31(22)43)10-12-30(42)47-24-6-3-2-4-7-24/h5,8-12,15-17,22-24,29H,2-4,6-7,13-14,18-19H2,1H3,(H,37,43)(H,38,45)(H,39,44)/b12-10+/t22-,23+,29-/m0/s1

> <PUBCHEM_IUPAC_INCHIKEY>
QSBDBZXLLULSKR-AKWCEWSDSA-N

> <PUBCHEM_XLOGP3_AA>
3.9

> <PUBCHEM_EXACT_MASS>
665.266105

> <PUBCHEM_MOLECULAR_FORMULA>
C34H37F2N5O7

> <PUBCHEM_MOLECULAR_WEIGHT>
665.7

> <PUBCHEM_OPENEYE_CAN_SMILES>
CC1=CC(=NO1)C(=O)NC2=CC=CN(C2=O)C(CC3=CC(=C(C=C3)F)F)C(=O)NC(CC4CCNC4=O)C=CC(=O)OC5CCCCC5

> <PUBCHEM_OPENEYE_ISO_SMILES>
CC1=CC(=NO1)C(=O)NC2=CC=CN(C2=O)[C@@H](CC3=CC(=C(C=C3)F)F)C(=O)N[C@@H](C[C@@H]4CCNC4=O)/C=C/C(=O)OC5CCCCC5

> <PUBCHEM_CACTVS_TPSA>
160

> <PUBCHEM_MONOISOTOPIC_WEIGHT>
665.266105

> <PUBCHEM_TOTAL_CHARGE>
0

> <PUBCHEM_HEAVY_ATOM_COUNT>
48

> <PUBCHEM_ATOM_DEF_STEREO_COUNT>
3

> <PUBCHEM_ATOM_UDEF_STEREO_COUNT>
0

> <PUBCHEM_BOND_DEF_STEREO_COUNT>
1

> <PUBCHEM_BOND_UDEF_STEREO_COUNT>
0

> <PUBCHEM_ISOTOPIC_ATOM_COUNT>
0

> <PUBCHEM_COMPONENT_COUNT>
1

> <PUBCHEM_CACTVS_TAUTO_COUNT>
-1

> <PUBCHEM_COORDINATE_TYPE>
1
5
255

> <PUBCHEM_BONDANNOTATIONS>
24  11  6
12  34  8
12  35  8
14  45  8
15  17  6
28  29  6
33  37  8
33  38  8
34  36  8
35  39  8
36  40  8
37  41  8
38  42  8
39  40  8
41  43  8
42  43  8
45  46  8
46  47  8
9  14  8
9  47  8

$$$$
15954229
  -OEChem-02212016592D

 78 81  0     1  0  0  0  0  0999 V2000
   10.7663   -2.1731    0.0000 O   0  0  0  0  0  0  0  0  0  0  0  0
    7.0468   -3.0580    0.0000 O   0  0  0  0  0  0  0  0  0  0  0  0
   10.5109    0.9420    0.0000 O   0  0  0  0  0  0  0  0  0  0  0  0
    4.4487   -0.5580    0.0000 O   0  0  0  0  0  0  0  0  0  0  0  0
   11.3769   -0.5580    0.0000 O   0  0  0  0  0  0  0  0  0  0  0  0
    5.3147    2.9420    0.0000 O   0  0  0  0  0  0  0  0  0  0  0  0
    2.0000    3.2784    0.0000 O   0  0  0  0  0  0  0  0  0  0  0  0
   11.2275   -3.8944    0.0000 N   0  0  0  0  0  0  0  0  0  0  0  0
    7.9128   -1.5580    0.0000 N   0  0  0  0  0  0  0  0  0  0  0  0
    6.1808   -0.5580    0.0000 N   0  0  0  0  0  0  0  0  0  0  0  0
    4.4487    1.4420    0.0000 N   0  0  0  0  0  0  0  0  0  0  0  0
    2.6691    2.5353    0.0000 N   0  0  0  0  0  0  0  0  0  0  0  0
    9.6448   -3.5580    0.0000 C   0  0  2  0  0  0  0  0  0  0  0  0
    8.7788   -3.0580    0.0000 C   0  0  0  0  0  0  0  0  0  0  0  0
    9.7494   -4.5525    0.0000 C   0  0  0  0  0  0  0  0  0  0  0  0
    8.7788   -2.0580    0.0000 C   0  0  1  0  0  0  0  0  0  0  0  0
   10.7275   -4.7604    0.0000 C   0  0  0  0  0  0  0  0  0  0  0  0
   10.5584   -3.1512    0.0000 C   0  0  0  0  0  0  0  0  0  0  0  0
    6.1808   -1.5580    0.0000 C   0  0  2  0  0  0  0  0  0  0  0  0
    9.6448   -1.5580    0.0000 C   0  0  0  0  0  0  0  0  0  0  0  0
    7.0468   -2.0580    0.0000 C   0  0  0  0  0  0  0  0  0  0  0  0
    5.3147   -2.0580    0.0000 C   0  0  0  0  0  0  0  0  0  0  0  0
    9.6448   -0.5580    0.0000 C   0  0  0  0  0  0  0  0  0  0  0  0
    5.3147   -3.0580    0.0000 C   0  0  0  0  0  0  0  0  0  0  0  0
    5.3147   -0.0580    0.0000 C   0  0  0  0  0  0  0  0  0  0  0  0
    7.0468   -0.0580    0.0000 C   0  0  0  0  0  0  0  0  0  0  0  0
    5.3147    0.9420    0.0000 C   0  0  0  0  0  0  0  0  0  0  0  0
    4.4487   -3.5580    0.0000 C   0  0  0  0  0  0  0  0  0  0  0  0
    6.1808   -3.5580    0.0000 C   0  0  0  0  0  0  0  0  0  0  0  0
   10.5109   -0.0580    0.0000 C   0  0  0  0  0  0  0  0  0  0  0  0
    7.0468    0.9420    0.0000 C   0  0  0  0  0  0  0  0  0  0  0  0
    6.1808    1.4420    0.0000 C   0  0  0  0  0  0  0  0  0  0  0  0
    4.4487   -4.5580    0.0000 C   0  0  0  0  0  0  0  0  0  0  0  0
    6.1808   -4.5580    0.0000 C   0  0  0  0  0  0  0  0  0  0  0  0
    5.3147   -5.0580    0.0000 C   0  0  0  0  0  0  0  0  0  0  0  0
   11.3769    1.4420    0.0000 C   0  0  0  0  0  0  0  0  0  0  0  0
    4.4487    2.4420    0.0000 C   0  0  0  0  0  0  0  0  0  0  0  0
   11.3769    2.4420    0.0000 C   0  0  0  0  0  0  0  0  0  0  0  0
   12.2429    0.9420    0.0000 C   0  0  0  0  0  0  0  0  0  0  0  0
    3.5827    2.9420    0.0000 C   0  0  0  0  0  0  0  0  0  0  0  0
    3.4782    3.9365    0.0000 C   0  0  0  0  0  0  0  0  0  0  0  0
    2.5000    4.1444    0.0000 C   0  0  0  0  0  0  0  0  0  0  0  0
    2.0933    5.0580    0.0000 C   0  0  0  0  0  0  0  0  0  0  0  0
    9.1249   -3.8957    0.0000 H   0  0  0  0  0  0  0  0  0  0  0  0
    8.1682   -2.9503    0.0000 H   0  0  0  0  0  0  0  0  0  0  0  0
    8.5668   -3.6406    0.0000 H   0  0  0  0  0  0  0  0  0  0  0  0
    9.1294   -4.5525    0.0000 H   0  0  0  0  0  0  0  0  0  0  0  0
    9.6846   -5.1691    0.0000 H   0  0  0  0  0  0  0  0  0  0  0  0
    8.2419   -2.3680    0.0000 H   0  0  0  0  0  0  0  0  0  0  0  0
   10.5359   -5.3501    0.0000 H   0  0  0  0  0  0  0  0  0  0  0  0
   11.2939   -5.0126    0.0000 H   0  0  0  0  0  0  0  0  0  0  0  0
   11.8441   -3.8296    0.0000 H   0  0  0  0  0  0  0  0  0  0  0  0
    7.9128   -0.9380    0.0000 H   0  0  0  0  0  0  0  0  0  0  0  0
    6.7177   -1.2480    0.0000 H   0  0  0  0  0  0  0  0  0  0  0  0
   10.1818   -1.8680    0.0000 H   0  0  0  0  0  0  0  0  0  0  0  0
    5.1027   -1.4754    0.0000 H   0  0  0  0  0  0  0  0  0  0  0  0
    4.7042   -2.1656    0.0000 H   0  0  0  0  0  0  0  0  0  0  0  0
    9.1079   -0.2480    0.0000 H   0  0  0  0  0  0  0  0  0  0  0  0
    7.5837   -0.3680    0.0000 H   0  0  0  0  0  0  0  0  0  0  0  0
    3.9118   -3.2480    0.0000 H   0  0  0  0  0  0  0  0  0  0  0  0
    6.7177   -3.2480    0.0000 H   0  0  0  0  0  0  0  0  0  0  0  0
    7.5837    1.2520    0.0000 H   0  0  0  0  0  0  0  0  0  0  0  0
    6.1808    2.0620    0.0000 H   0  0  0  0  0  0  0  0  0  0  0  0
    3.9118   -4.8680    0.0000 H   0  0  0  0  0  0  0  0  0  0  0  0
    6.7177   -4.8680    0.0000 H   0  0  0  0  0  0  0  0  0  0  0  0
    3.9118    1.1320    0.0000 H   0  0  0  0  0  0  0  0  0  0  0  0
    5.3147   -5.6780    0.0000 H   0  0  0  0  0  0  0  0  0  0  0  0
   10.8400    1.7520    0.0000 H   0  0  0  0  0  0  0  0  0  0  0  0
   11.9969    2.4420    0.0000 H   0  0  0  0  0  0  0  0  0  0  0  0
   11.3769    3.0620    0.0000 H   0  0  0  0  0  0  0  0  0  0  0  0
   10.7569    2.4420    0.0000 H   0  0  0  0  0  0  0  0  0  0  0  0
   11.9329    0.4051    0.0000 H   0  0  0  0  0  0  0  0  0  0  0  0
   12.7799    0.6320    0.0000 H   0  0  0  0  0  0  0  0  0  0  0  0
   12.5529    1.4790    0.0000 H   0  0  0  0  0  0  0  0  0  0  0  0
    3.9389    4.3514    0.0000 H   0  0  0  0  0  0  0  0  0  0  0  0
    2.6597    5.3102    0.0000 H   0  0  0  0  0  0  0  0  0  0  0  0
    1.8411    5.6244    0.0000 H   0  0  0  0  0  0  0  0  0  0  0  0
    1.5269    4.8058    0.0000 H   0  0  0  0  0  0  0  0  0  0  0  0
  1 18  2  0  0  0  0
  2 21  2  0  0  0  0
  3 30  1  0  0  0  0
  3 36  1  0  0  0  0
  4 25  2  0  0  0  0
  5 30  2  0  0  0  0
  6 37  2  0  0  0  0
  7 12  1  0  0  0  0
  7 42  1  0  0  0  0
  8 17  1  0  0  0  0
  8 18  1  0  0  0  0
  8 52  1  0  0  0  0
 16  9  1  6  0  0  0
  9 21  1  0  0  0  0
  9 53  1  0  0  0  0
 10 19  1  0  0  0  0
 10 25  1  0  0  0  0
 10 26  1  0  0  0  0
 11 27  1  0  0  0  0
 11 37  1  0  0  0  0
 11 66  1  0  0  0  0
 12 40  2  0  0  0  0
 13 14  1  1  0  0  0
 13 15  1  0  0  0  0
 13 18  1  0  0  0  0
 13 44  1  0  0  0  0
 14 16  1  0  0  0  0
 14 45  1  0  0  0  0
 14 46  1  0  0  0  0
 15 17  1  0  0  0  0
 15 47  1  0  0  0  0
 15 48  1  0  0  0  0
 16 20  1  0  0  0  0
 16 49  1  0  0  0  0
 17 50  1  0  0  0  0
 17 51  1  0  0  0  0
 19 21  1  6  0  0  0
 19 22  1  0  0  0  0
 19 54  1  0  0  0  0
 20 23  2  0  0  0  0
 20 55  1  0  0  0  0
 22 24  1  0  0  0  0
 22 56  1  0  0  0  0
 22 57  1  0  0  0  0
 23 30  1  0  0  0  0
 23 58  1  0  0  0  0
 24 28  2  0  0  0  0
 24 29  1  0  0  0  0
 25 27  1  0  0  0  0
 26 31  2  0  0  0  0
 26 59  1  0  0  0  0
 27 32  2  0  0  0  0
 28 33  1  0  0  0  0
 28 60  1  0  0  0  0
 29 34  2  0  0  0  0
 29 61  1  0  0  0  0
 31 32  1  0  0  0  0
 31 62  1  0  0  0  0
 32 63  1  0  0  0  0
 33 35  2  0  0  0  0
 33 64  1  0  0  0  0
 34 35  1  0  0  0  0
 34 65  1  0  0  0  0
 35 67  1  0  0  0  0
 36 38  1  0  0  0  0
 36 39  1  0  0  0  0
 36 68  1  0  0  0  0
 37 40  1  0  0  0  0
 38 69  1  0  0  0  0
 38 70  1  0  0  0  0
 38 71  1  0  0  0  0
 39 72  1  0  0  0  0
 39 73  1  0  0  0  0
 39 74  1  0  0  0  0
 40 41  1  0  0  0  0
 41 42  2  0  0  0  0
 41 75  1  0  0  0  0
 42 43  1  0  0  0  0
 43 76  1  0  0  0  0
 43 77  1  0  0  0  0
 43 78  1  0  0  0  0
M  END
> <PUBCHEM_COMPOUND_CID>
15954229

> <PUBCHEM_COMPOUND_CANONICALIZED>
1

> <PUBCHEM_CACTVS_COMPLEXITY>
1140

> <PUBCHEM_CACTVS_HBOND_ACCEPTOR>
8

> <PUBCHEM_CACTVS_HBOND_DONOR>
3

> <PUBCHEM_CACTVS_ROTATABLE_BOND>
13

> <PUBCHEM_CACTVS_SUBSKEYS>
AAADcfB7uAAAAAAAAAAAAAAAAAAAAWLAAAAwQAAAAAAAAAABwAAAHgAUAAAADTzhngYyjJPQBACpA6X2WgCCAAAmIgAomKG+bNoIZjqAtbOWMYhmlhiI6cc/iICOAAAAAAAAAAAAAAAAAAAAAAAAAAAAAA==

> <PUBCHEM_IUPAC_OPENEYE_NAME>
isopropyl (E,4S)-4-[[(2S)-2-[3-[(5-methylisoxazole-3-carbonyl)amino]-2-oxo-1-pyridyl]-3-phenyl-propanoyl]amino]-5-[(3S)-2-oxopyrrolidin-3-yl]pent-2-enoate

> <PUBCHEM_IUPAC_CAS_NAME>
(E,4S)-4-[[(2S)-2-[3-[[(5-methyl-3-isoxazolyl)-oxomethyl]amino]-2-oxo-1-pyridinyl]-1-oxo-3-phenylpropyl]amino]-5-[(3S)-2-oxo-3-pyrrolidinyl]-2-pentenoic acid propan-2-yl ester

> <PUBCHEM_IUPAC_NAME_MARKUP>
propan-2-yl (<I>E</I>,4<I>S</I>)-4-[[(2<I>S</I>)-2-[3-[(5-methyl-1,2-oxazole-3-carbonyl)amino]-2-oxopyridin-1-yl]-3-phenylpropanoyl]amino]-5-[(3<I>S</I>)-2-oxopyrrolidin-3-yl]pent-2-enoate

> <PUBCHEM_IUPAC_NAME>
propan-2-yl (E,4S)-4-[[(2S)-2-[3-[(5-methyl-1,2-oxazole-3-carbonyl)amino]-2-oxopyridin-1-yl]-3-phenylpropanoyl]amino]-5-[(3S)-2-oxopyrrolidin-3-yl]pent-2-enoate

> <PUBCHEM_IUPAC_SYSTEMATIC_NAME>
propan-2-yl (E,4S)-4-[[(2S)-2-[3-[(5-methyl-1,2-oxazol-3-yl)carbonylamino]-2-oxidanylidene-pyridin-1-yl]-3-phenyl-propanoyl]amino]-5-[(3S)-2-oxidanylidenepyrrolidin-3-yl]pent-2-enoate

> <PUBCHEM_IUPAC_TRADITIONAL_NAME>
(E,4S)-4-[[(2S)-2-[2-keto-3-[(5-methylisoxazole-3-carbonyl)amino]-1-pyridyl]-3-phenyl-propanoyl]amino]-5-[(3S)-2-ketopyrrolidin-3-yl]pent-2-enoic acid isopropyl ester

> <PUBCHEM_IUPAC_INCHI>
InChI=1S/C31H35N5O7/c1-19(2)42-27(37)12-11-23(18-22-13-14-32-28(22)38)33-30(40)26(17-21-8-5-4-6-9-21)36-15-7-10-24(31(36)41)34-29(39)25-16-20(3)43-35-25/h4-12,15-16,19,22-23,26H,13-14,17-18H2,1-3H3,(H,32,38)(H,33,40)(H,34,39)/b12-11+/t22-,23+,26-/m0/s1

> <PUBCHEM_IUPAC_INCHIKEY>
GDKSFXZDBNFUIQ-RGTUMXNPSA-N

> <PUBCHEM_XLOGP3_AA>
2.7

> <PUBCHEM_EXACT_MASS>
589.253648

> <PUBCHEM_MOLECULAR_FORMULA>
C31H35N5O7

> <PUBCHEM_MOLECULAR_WEIGHT>
589.6

> <PUBCHEM_OPENEYE_CAN_SMILES>
CC1=CC(=NO1)C(=O)NC2=CC=CN(C2=O)C(CC3=CC=CC=C3)C(=O)NC(CC4CCNC4=O)C=CC(=O)OC(C)C

> <PUBCHEM_OPENEYE_ISO_SMILES>
CC1=CC(=NO1)C(=O)NC2=CC=CN(C2=O)[C@@H](CC3=CC=CC=C3)C(=O)N[C@@H](C[C@@H]4CCNC4=O)/C=C/C(=O)OC(C)C

> <PUBCHEM_CACTVS_TPSA>
160

> <PUBCHEM_MONOISOTOPIC_WEIGHT>
589.253648

> <PUBCHEM_TOTAL_CHARGE>
0

> <PUBCHEM_HEAVY_ATOM_COUNT>
43

> <PUBCHEM_ATOM_DEF_STEREO_COUNT>
3

> <PUBCHEM_ATOM_UDEF_STEREO_COUNT>
0

> <PUBCHEM_BOND_DEF_STEREO_COUNT>
1

> <PUBCHEM_BOND_UDEF_STEREO_COUNT>
0

> <PUBCHEM_ISOTOPIC_ATOM_COUNT>
0

> <PUBCHEM_COMPONENT_COUNT>
1

> <PUBCHEM_CACTVS_TAUTO_COUNT>
-1

> <PUBCHEM_COORDINATE_TYPE>
1
5
255

> <PUBCHEM_BONDANNOTATIONS>
10  25  8
10  26  8
12  40  8
13  14  5
19  21  6
24  28  8
24  29  8
25  27  8
26  31  8
27  32  8
28  33  8
29  34  8
31  32  8
33  35  8
34  35  8
40  41  8
41  42  8
7  12  8
7  42  8
16  9  6

$$$$
15954233
  -OEChem-02212016592D

 80 83  0     1  0  0  0  0  0999 V2000
    5.3147   -5.2702    0.0000 F   0  0  0  0  0  0  0  0  0  0  0  0
    7.9408    3.5086    0.0000 O   0  0  0  0  0  0  0  0  0  0  0  0
    7.0468    0.7298    0.0000 O   0  0  0  0  0  0  0  0  0  0  0  0
    2.0000    1.3934    0.0000 O   0  0  0  0  0  0  0  0  0  0  0  0
    7.9128    0.2298    0.0000 O   0  0  0  0  0  0  0  0  0  0  0  0
    2.4612    3.1147    0.0000 O   0  0  0  0  0  0  0  0  0  0  0  0
   10.5109   -2.2702    0.0000 O   0  0  0  0  0  0  0  0  0  0  0  0
   12.9596   -0.4338    0.0000 O   0  0  0  0  0  0  0  0  0  0  0  0
    6.6808    4.7686    0.0000 N   0  0  0  0  0  0  0  0  0  0  0  0
    5.3147    0.7298    0.0000 N   0  0  0  0  0  0  0  0  0  0  0  0
    9.6448   -0.7702    0.0000 N   0  0  0  0  0  0  0  0  0  0  0  0
   12.2905   -1.1770    0.0000 N   0  0  0  0  0  0  0  0  0  0  0  0
    6.1808    3.2298    0.0000 C   0  0  2  0  0  0  0  0  0  0  0  0
    6.1808    2.2298    0.0000 C   0  0  0  0  0  0  0  0  0  0  0  0
    5.3717    3.8176    0.0000 C   0  0  0  0  0  0  0  0  0  0  0  0
    5.3147    1.7298    0.0000 C   0  0  1  0  0  0  0  0  0  0  0  0
    5.6808    4.7686    0.0000 C   0  0  0  0  0  0  0  0  0  0  0  0
    6.9898    3.8176    0.0000 C   0  0  0  0  0  0  0  0  0  0  0  0
    6.1808   -0.7702    0.0000 C   0  0  2  0  0  0  0  0  0  0  0  0
    4.4487    2.2298    0.0000 C   0  0  0  0  0  0  0  0  0  0  0  0
    7.0468   -1.2702    0.0000 C   0  0  0  0  0  0  0  0  0  0  0  0
    6.1808    0.2298    0.0000 C   0  0  0  0  0  0  0  0  0  0  0  0
    5.3147   -1.2702    0.0000 C   0  0  0  0  0  0  0  0  0  0  0  0
    8.7788   -1.2702    0.0000 C   0  0  2  0  0  0  0  0  0  0  0  0
    7.9128   -0.7702    0.0000 C   0  0  0  0  0  0  0  0  0  0  0  0
    8.7788   -2.2702    0.0000 C   0  0  0  0  0  0  0  0  0  0  0  0
    3.5827    1.7298    0.0000 C   0  0  0  0  0  0  0  0  0  0  0  0
    3.4782    0.7353    0.0000 C   0  0  0  0  0  0  0  0  0  0  0  0
    5.3147   -2.2702    0.0000 C   0  0  0  0  0  0  0  0  0  0  0  0
    9.6448   -2.7702    0.0000 C   0  0  0  0  0  0  0  0  0  0  0  0
    7.9128   -2.7702    0.0000 C   0  0  0  0  0  0  0  0  0  0  0  0
    2.5000    0.5274    0.0000 C   0  0  0  0  0  0  0  0  0  0  0  0
    2.6691    2.1365    0.0000 C   0  0  0  0  0  0  0  0  0  0  0  0
    6.1808   -2.7702    0.0000 C   0  0  0  0  0  0  0  0  0  0  0  0
    4.4487   -2.7702    0.0000 C   0  0  0  0  0  0  0  0  0  0  0  0
   10.5109   -1.2702    0.0000 C   0  0  0  0  0  0  0  0  0  0  0  0
    6.1808   -3.7702    0.0000 C   0  0  0  0  0  0  0  0  0  0  0  0
    4.4487   -3.7702    0.0000 C   0  0  0  0  0  0  0  0  0  0  0  0
    5.3147   -4.2702    0.0000 C   0  0  0  0  0  0  0  0  0  0  0  0
   11.3769   -0.7702    0.0000 C   0  0  0  0  0  0  0  0  0  0  0  0
   11.4814    0.2243    0.0000 C   0  0  0  0  0  0  0  0  0  0  0  0
   12.4596    0.4322    0.0000 C   0  0  0  0  0  0  0  0  0  0  0  0
   12.8663    1.3458    0.0000 C   0  0  0  0  0  0  0  0  0  0  0  0
    6.7332    2.9483    0.0000 H   0  0  0  0  0  0  0  0  0  0  0  0
    6.3928    1.6472    0.0000 H   0  0  0  0  0  0  0  0  0  0  0  0
    6.7913    2.3374    0.0000 H   0  0  0  0  0  0  0  0  0  0  0  0
    4.8053    4.0698    0.0000 H   0  0  0  0  0  0  0  0  0  0  0  0
    5.0617    3.2806    0.0000 H   0  0  0  0  0  0  0  0  0  0  0  0
    5.8517    1.4198    0.0000 H   0  0  0  0  0  0  0  0  0  0  0  0
    5.7456    5.3852    0.0000 H   0  0  0  0  0  0  0  0  0  0  0  0
    5.0743    4.8975    0.0000 H   0  0  0  0  0  0  0  0  0  0  0  0
    6.1808   -1.3902    0.0000 H   0  0  0  0  0  0  0  0  0  0  0  0
    7.0452    5.2702    0.0000 H   0  0  0  0  0  0  0  0  0  0  0  0
    4.7778    0.4198    0.0000 H   0  0  0  0  0  0  0  0  0  0  0  0
    6.6482   -1.7452    0.0000 H   0  0  0  0  0  0  0  0  0  0  0  0
    7.4453   -1.7452    0.0000 H   0  0  0  0  0  0  0  0  0  0  0  0
    4.4487    2.8498    0.0000 H   0  0  0  0  0  0  0  0  0  0  0  0
    5.1027   -0.6876    0.0000 H   0  0  0  0  0  0  0  0  0  0  0  0
    4.7042   -1.3779    0.0000 H   0  0  0  0  0  0  0  0  0  0  0  0
    8.7788   -0.6502    0.0000 H   0  0  0  0  0  0  0  0  0  0  0  0
    9.3158   -1.9602    0.0000 H   0  0  0  0  0  0  0  0  0  0  0  0
    3.5430    0.1187    0.0000 H   0  0  0  0  0  0  0  0  0  0  0  0
    4.0982    0.7353    0.0000 H   0  0  0  0  0  0  0  0  0  0  0  0
    9.6448   -0.1502    0.0000 H   0  0  0  0  0  0  0  0  0  0  0  0
    9.3348   -3.3072    0.0000 H   0  0  0  0  0  0  0  0  0  0  0  0
   10.1818   -3.0802    0.0000 H   0  0  0  0  0  0  0  0  0  0  0  0
    9.9548   -2.2333    0.0000 H   0  0  0  0  0  0  0  0  0  0  0  0
    7.6028   -2.2333    0.0000 H   0  0  0  0  0  0  0  0  0  0  0  0
    7.3759   -3.0802    0.0000 H   0  0  0  0  0  0  0  0  0  0  0  0
    8.2228   -3.3072    0.0000 H   0  0  0  0  0  0  0  0  0  0  0  0
    1.9336    0.2752    0.0000 H   0  0  0  0  0  0  0  0  0  0  0  0
    2.6916   -0.0623    0.0000 H   0  0  0  0  0  0  0  0  0  0  0  0
    6.7177   -2.4602    0.0000 H   0  0  0  0  0  0  0  0  0  0  0  0
    3.9118   -2.4602    0.0000 H   0  0  0  0  0  0  0  0  0  0  0  0
    6.7177   -4.0802    0.0000 H   0  0  0  0  0  0  0  0  0  0  0  0
    3.9118   -4.0802    0.0000 H   0  0  0  0  0  0  0  0  0  0  0  0
   11.0207    0.6392    0.0000 H   0  0  0  0  0  0  0  0  0  0  0  0
   13.4327    1.0936    0.0000 H   0  0  0  0  0  0  0  0  0  0  0  0
   13.1185    1.9122    0.0000 H   0  0  0  0  0  0  0  0  0  0  0  0
   12.2999    1.5979    0.0000 H   0  0  0  0  0  0  0  0  0  0  0  0
  1 39  1  0  0  0  0
  2 18  2  0  0  0  0
  3 22  2  0  0  0  0
  4 32  1  0  0  0  0
  4 33  1  0  0  0  0
  5 25  2  0  0  0  0
  6 33  2  0  0  0  0
  7 36  2  0  0  0  0
  8 12  1  0  0  0  0
  8 42  1  0  0  0  0
  9 17  1  0  0  0  0
  9 18  1  0  0  0  0
  9 53  1  0  0  0  0
 16 10  1  6  0  0  0
 10 22  1  0  0  0  0
 10 54  1  0  0  0  0
 24 11  1  1  0  0  0
 11 36  1  0  0  0  0
 11 64  1  0  0  0  0
 12 40  2  0  0  0  0
 13 14  1  6  0  0  0
 13 15  1  0  0  0  0
 13 18  1  0  0  0  0
 13 44  1  0  0  0  0
 14 16  1  0  0  0  0
 14 45  1  0  0  0  0
 14 46  1  0  0  0  0
 15 17  1  0  0  0  0
 15 47  1  0  0  0  0
 15 48  1  0  0  0  0
 16 20  1  0  0  0  0
 16 49  1  0  0  0  0
 17 50  1  0  0  0  0
 17 51  1  0  0  0  0
 19 21  1  1  0  0  0
 19 22  1  0  0  0  0
 19 23  1  0  0  0  0
 19 52  1  0  0  0  0
 20 27  2  0  0  0  0
 20 57  1  0  0  0  0
 21 25  1  0  0  0  0
 21 55  1  0  0  0  0
 21 56  1  0  0  0  0
 23 29  1  0  0  0  0
 23 58  1  0  0  0  0
 23 59  1  0  0  0  0
 24 25  1  0  0  0  0
 24 26  1  0  0  0  0
 24 60  1  0  0  0  0
 26 30  1  0  0  0  0
 26 31  1  0  0  0  0
 26 61  1  0  0  0  0
 27 28  1  0  0  0  0
 27 33  1  0  0  0  0
 28 32  1  0  0  0  0
 28 62  1  0  0  0  0
 28 63  1  0  0  0  0
 29 34  2  0  0  0  0
 29 35  1  0  0  0  0
 30 65  1  0  0  0  0
 30 66  1  0  0  0  0
 30 67  1  0  0  0  0
 31 68  1  0  0  0  0
 31 69  1  0  0  0  0
 31 70  1  0  0  0  0
 32 71  1  0  0  0  0
 32 72  1  0  0  0  0
 34 37  1  0  0  0  0
 34 73  1  0  0  0  0
 35 38  2  0  0  0  0
 35 74  1  0  0  0  0
 36 40  1  0  0  0  0
 37 39  2  0  0  0  0
 37 75  1  0  0  0  0
 38 39  1  0  0  0  0
 38 76  1  0  0  0  0
 40 41  1  0  0  0  0
 41 42  2  0  0  0  0
 41 77  1  0  0  0  0
 42 43  1  0  0  0  0
 43 78  1  0  0  0  0
 43 79  1  0  0  0  0
 43 80  1  0  0  0  0
M  END
> <PUBCHEM_COMPOUND_CID>
15954233

> <PUBCHEM_COMPOUND_CANONICALIZED>
1

> <PUBCHEM_CACTVS_COMPLEXITY>
1070

> <PUBCHEM_CACTVS_HBOND_ACCEPTOR>
9

> <PUBCHEM_CACTVS_HBOND_DONOR>
3

> <PUBCHEM_CACTVS_ROTATABLE_BOND>
13

> <PUBCHEM_CACTVS_SUBSKEYS>
AAADcfB7uQAAAAAAAAAAAAAAAAAAAWLEgAAwAAAAAAAAAAABwAAAHwAUAAAADSzhng4yjJLQBACpA6XyWgCCAAAmIgAomKG+bNoIZjqAtbOWMYhm1hiI6cc/icCeAAAAAAAAAAAAAAAAAAAAAAAAAAAAAA==

> <PUBCHEM_IUPAC_OPENEYE_NAME>
N-[(1S,4R)-4-[(4-fluorophenyl)methyl]-1-isopropyl-2,5-dioxo-5-[[(1S,2E)-1-[[(3S)-2-oxopyrrolidin-3-yl]methyl]-2-(2-oxotetrahydrofuran-3-ylidene)ethyl]amino]pentyl]-5-methyl-isoxazole-3-carboxamide

> <PUBCHEM_IUPAC_CAS_NAME>
N-[(3S,6R)-6-[(4-fluorophenyl)methyl]-2-methyl-4,7-dioxo-7-[[(1E,2S)-1-(2-oxo-3-oxolanylidene)-3-[(3S)-2-oxo-3-pyrrolidinyl]propan-2-yl]amino]heptan-3-yl]-5-methyl-3-isoxazolecarboxamide

> <PUBCHEM_IUPAC_NAME_MARKUP>
<I>N</I>-[(3<I>S</I>,6<I>R</I>)-6-[(4-fluorophenyl)methyl]-2-methyl-4,7-dioxo-7-[[(1<I>E</I>,2<I>S</I>)-1-(2-oxooxolan-3-ylidene)-3-[(3<I>S</I>)-2-oxopyrrolidin-3-yl]propan-2-yl]amino]heptan-3-yl]-5-methyl-1,2-oxazole-3-carboxamide

> <PUBCHEM_IUPAC_NAME>
N-[(3S,6R)-6-[(4-fluorophenyl)methyl]-2-methyl-4,7-dioxo-7-[[(1E,2S)-1-(2-oxooxolan-3-ylidene)-3-[(3S)-2-oxopyrrolidin-3-yl]propan-2-yl]amino]heptan-3-yl]-5-methyl-1,2-oxazole-3-carboxamide

> <PUBCHEM_IUPAC_SYSTEMATIC_NAME>
N-[(3S,6R)-6-[(4-fluorophenyl)methyl]-2-methyl-4,7-bis(oxidanylidene)-7-[[(1E,2S)-1-(2-oxidanylideneoxolan-3-ylidene)-3-[(3S)-2-oxidanylidenepyrrolidin-3-yl]propan-2-yl]amino]heptan-3-yl]-5-methyl-1,2-oxazole-3-carboxamide

> <PUBCHEM_IUPAC_TRADITIONAL_NAME>
N-[(1S,4R)-4-(4-fluorobenzyl)-1-isopropyl-2,5-diketo-5-[[(1S,2E)-1-[[(3S)-2-ketopyrrolidin-3-yl]methyl]-2-(2-ketotetrahydrofuran-3-ylidene)ethyl]amino]pentyl]-5-methyl-isoxazole-3-carboxamide

> <PUBCHEM_IUPAC_INCHI>
InChI=1S/C31H37FN4O7/c1-17(2)27(35-30(40)25-12-18(3)43-36-25)26(37)16-22(13-19-4-6-23(32)7-5-19)29(39)34-24(14-20-8-10-33-28(20)38)15-21-9-11-42-31(21)41/h4-7,12,15,17,20,22,24,27H,8-11,13-14,16H2,1-3H3,(H,33,38)(H,34,39)(H,35,40)/b21-15+/t20-,22+,24-,27-/m0/s1

> <PUBCHEM_IUPAC_INCHIKEY>
CALKYRSEXBYKAI-ILGFIILKSA-N

> <PUBCHEM_XLOGP3_AA>
2.8

> <PUBCHEM_EXACT_MASS>
596.264628

> <PUBCHEM_MOLECULAR_FORMULA>
C31H37FN4O7

> <PUBCHEM_MOLECULAR_WEIGHT>
596.6

> <PUBCHEM_OPENEYE_CAN_SMILES>
CC1=CC(=NO1)C(=O)NC(C(C)C)C(=O)CC(CC2=CC=C(C=C2)F)C(=O)NC(CC3CCNC3=O)C=C4CCOC4=O

> <PUBCHEM_OPENEYE_ISO_SMILES>
CC1=CC(=NO1)C(=O)N[C@@H](C(C)C)C(=O)C[C@@H](CC2=CC=C(C=C2)F)C(=O)N[C@@H](C[C@@H]3CCNC3=O)/C=C/4\CCOC4=O

> <PUBCHEM_CACTVS_TPSA>
157

> <PUBCHEM_MONOISOTOPIC_WEIGHT>
596.264628

> <PUBCHEM_TOTAL_CHARGE>
0

> <PUBCHEM_HEAVY_ATOM_COUNT>
43

> <PUBCHEM_ATOM_DEF_STEREO_COUNT>
4

> <PUBCHEM_ATOM_UDEF_STEREO_COUNT>
0

> <PUBCHEM_BOND_DEF_STEREO_COUNT>
1

> <PUBCHEM_BOND_UDEF_STEREO_COUNT>
0

> <PUBCHEM_ISOTOPIC_ATOM_COUNT>
0

> <PUBCHEM_COMPONENT_COUNT>
1

> <PUBCHEM_CACTVS_TAUTO_COUNT>
-1

> <PUBCHEM_COORDINATE_TYPE>
1
5
255

> <PUBCHEM_BONDANNOTATIONS>
16  10  6
24  11  5
12  40  8
13  14  6
19  21  5
29  34  8
29  35  8
34  37  8
35  38  8
37  39  8
38  39  8
40  41  8
41  42  8
8  12  8
8  42  8

$$$$
15954628
  -OEChem-02212016592D

 88 92  0     1  0  0  0  0  0999 V2000
    9.8479   -4.3480    0.0000 F   0  0  0  0  0  0  0  0  0  0  0  0
   11.8479   -4.3480    0.0000 F   0  0  0  0  0  0  0  0  0  0  0  0
    5.3479    3.4462    0.0000 O   0  0  0  0  0  0  0  0  0  0  0  0
   10.1266    4.3403    0.0000 O   0  0  0  0  0  0  0  0  0  0  0  0
    7.3479   -0.0179    0.0000 O   0  0  0  0  0  0  0  0  0  0  0  0
    5.3479    1.7142    0.0000 O   0  0  0  0  0  0  0  0  0  0  0  0
    6.8479   -0.8839    0.0000 O   0  0  0  0  0  0  0  0  0  0  0  0
    5.8479   -4.3480    0.0000 O   0  0  0  0  0  0  0  0  0  0  0  0
    2.8090   -2.9820    0.0000 O   0  0  0  0  0  0  0  0  0  0  0  0
   11.3867    3.0802    0.0000 N   0  0  0  0  0  0  0  0  0  0  0  0
    8.8479    0.8482    0.0000 N   0  0  0  0  0  0  0  0  0  0  0  0
    8.3479   -1.7499    0.0000 N   0  0  0  0  0  0  0  0  0  0  0  0
    5.8479   -2.6159    0.0000 N   0  0  0  0  0  0  0  0  0  0  0  0
    3.7601   -2.6729    0.0000 N   0  0  0  0  0  0  0  0  0  0  0  0
    9.8479    2.5802    0.0000 C   0  0  2  0  0  0  0  0  0  0  0  0
    8.8479    2.5802    0.0000 C   0  0  0  0  0  0  0  0  0  0  0  0
   10.4356    1.7712    0.0000 C   0  0  0  0  0  0  0  0  0  0  0  0
    4.3479    3.4462    0.0000 C   0  0  0  0  0  0  0  0  0  0  0  0
    3.9140    2.5453    0.0000 C   0  0  0  0  0  0  0  0  0  0  0  0
    3.9140    4.3472    0.0000 C   0  0  0  0  0  0  0  0  0  0  0  0
    2.9390    2.3228    0.0000 C   0  0  0  0  0  0  0  0  0  0  0  0
    2.9390    4.5697    0.0000 C   0  0  0  0  0  0  0  0  0  0  0  0
    8.3479    1.7142    0.0000 C   0  0  1  0  0  0  0  0  0  0  0  0
    2.1572    2.9462    0.0000 C   0  0  0  0  0  0  0  0  0  0  0  0
    2.1572    3.9462    0.0000 C   0  0  0  0  0  0  0  0  0  0  0  0
   11.3867    2.0802    0.0000 C   0  0  0  0  0  0  0  0  0  0  0  0
   10.4356    3.3892    0.0000 C   0  0  0  0  0  0  0  0  0  0  0  0
    7.3479    1.7142    0.0000 C   0  0  0  0  0  0  0  0  0  0  0  0
    8.8479   -0.8839    0.0000 C   0  0  2  0  0  0  0  0  0  0  0  0
    8.3479   -0.0179    0.0000 C   0  0  0  0  0  0  0  0  0  0  0  0
    6.8479    2.5802    0.0000 C   0  0  0  0  0  0  0  0  0  0  0  0
    5.8479    2.5802    0.0000 C   0  0  0  0  0  0  0  0  0  0  0  0
    9.8479   -0.8839    0.0000 C   0  0  0  0  0  0  0  0  0  0  0  0
   10.3479   -1.7499    0.0000 C   0  0  0  0  0  0  0  0  0  0  0  0
    7.3479   -1.7499    0.0000 C   0  0  0  0  0  0  0  0  0  0  0  0
    8.8479   -2.6159    0.0000 C   0  0  0  0  0  0  0  0  0  0  0  0
    6.8479   -2.6159    0.0000 C   0  0  0  0  0  0  0  0  0  0  0  0
    9.8479   -2.6159    0.0000 C   0  0  0  0  0  0  0  0  0  0  0  0
   11.3479   -1.7499    0.0000 C   0  0  0  0  0  0  0  0  0  0  0  0
    8.3479   -3.4820    0.0000 C   0  0  0  0  0  0  0  0  0  0  0  0
    7.3479   -3.4820    0.0000 C   0  0  0  0  0  0  0  0  0  0  0  0
   10.3479   -3.4820    0.0000 C   0  0  0  0  0  0  0  0  0  0  0  0
   11.8479   -2.6159    0.0000 C   0  0  0  0  0  0  0  0  0  0  0  0
   11.3479   -3.4820    0.0000 C   0  0  0  0  0  0  0  0  0  0  0  0
    5.3479   -3.4820    0.0000 C   0  0  0  0  0  0  0  0  0  0  0  0
    4.3479   -3.4820    0.0000 C   0  0  0  0  0  0  0  0  0  0  0  0
    3.7601   -4.2910    0.0000 C   0  0  0  0  0  0  0  0  0  0  0  0
    2.8090   -3.9820    0.0000 C   0  0  0  0  0  0  0  0  0  0  0  0
    2.0000   -4.5697    0.0000 C   0  0  0  0  0  0  0  0  0  0  0  0
    9.5664    3.1326    0.0000 H   0  0  0  0  0  0  0  0  0  0  0  0
    8.9555    3.1908    0.0000 H   0  0  0  0  0  0  0  0  0  0  0  0
    8.2652    2.7923    0.0000 H   0  0  0  0  0  0  0  0  0  0  0  0
    9.8987    1.4612    0.0000 H   0  0  0  0  0  0  0  0  0  0  0  0
   10.6878    1.2048    0.0000 H   0  0  0  0  0  0  0  0  0  0  0  0
    4.6777    2.9213    0.0000 H   0  0  0  0  0  0  0  0  0  0  0  0
    3.9140    1.9253    0.0000 H   0  0  0  0  0  0  0  0  0  0  0  0
    4.5184    2.4073    0.0000 H   0  0  0  0  0  0  0  0  0  0  0  0
    4.5184    4.4852    0.0000 H   0  0  0  0  0  0  0  0  0  0  0  0
    3.9140    4.9672    0.0000 H   0  0  0  0  0  0  0  0  0  0  0  0
    2.4543    1.9362    0.0000 H   0  0  0  0  0  0  0  0  0  0  0  0
    3.2081    1.7642    0.0000 H   0  0  0  0  0  0  0  0  0  0  0  0
    3.2081    5.1283    0.0000 H   0  0  0  0  0  0  0  0  0  0  0  0
    2.4543    4.9563    0.0000 H   0  0  0  0  0  0  0  0  0  0  0  0
    8.9679    1.7142    0.0000 H   0  0  0  0  0  0  0  0  0  0  0  0
    1.5528    3.0842    0.0000 H   0  0  0  0  0  0  0  0  0  0  0  0
    1.8882    2.3876    0.0000 H   0  0  0  0  0  0  0  0  0  0  0  0
    1.8882    4.5048    0.0000 H   0  0  0  0  0  0  0  0  0  0  0  0
    1.5528    3.8083    0.0000 H   0  0  0  0  0  0  0  0  0  0  0  0
   11.5156    1.4738    0.0000 H   0  0  0  0  0  0  0  0  0  0  0  0
   12.0033    2.1450    0.0000 H   0  0  0  0  0  0  0  0  0  0  0  0
   11.8883    3.4446    0.0000 H   0  0  0  0  0  0  0  0  0  0  0  0
    9.4679    0.8482    0.0000 H   0  0  0  0  0  0  0  0  0  0  0  0
    7.0379    1.1773    0.0000 H   0  0  0  0  0  0  0  0  0  0  0  0
    8.2279   -0.8839    0.0000 H   0  0  0  0  0  0  0  0  0  0  0  0
    7.1579    3.1172    0.0000 H   0  0  0  0  0  0  0  0  0  0  0  0
   10.4305   -0.6718    0.0000 H   0  0  0  0  0  0  0  0  0  0  0  0
    9.7402   -0.2733    0.0000 H   0  0  0  0  0  0  0  0  0  0  0  0
    9.4679   -2.6159    0.0000 H   0  0  0  0  0  0  0  0  0  0  0  0
    9.2279   -2.6159    0.0000 H   0  0  0  0  0  0  0  0  0  0  0  0
   11.6579   -1.2130    0.0000 H   0  0  0  0  0  0  0  0  0  0  0  0
    8.6579   -4.0189    0.0000 H   0  0  0  0  0  0  0  0  0  0  0  0
    7.0379   -4.0189    0.0000 H   0  0  0  0  0  0  0  0  0  0  0  0
   12.4679   -2.6159    0.0000 H   0  0  0  0  0  0  0  0  0  0  0  0
    5.5379   -2.0790    0.0000 H   0  0  0  0  0  0  0  0  0  0  0  0
    3.9517   -4.8806    0.0000 H   0  0  0  0  0  0  0  0  0  0  0  0
    1.6356   -4.0682    0.0000 H   0  0  0  0  0  0  0  0  0  0  0  0
    1.4984   -4.9342    0.0000 H   0  0  0  0  0  0  0  0  0  0  0  0
    2.3644   -5.0713    0.0000 H   0  0  0  0  0  0  0  0  0  0  0  0
  1 42  1  0  0  0  0
  2 44  1  0  0  0  0
  3 18  1  0  0  0  0
  3 32  1  0  0  0  0
  4 27  2  0  0  0  0
  5 30  2  0  0  0  0
  6 32  2  0  0  0  0
  7 35  2  0  0  0  0
  8 45  2  0  0  0  0
  9 14  1  0  0  0  0
  9 48  1  0  0  0  0
 10 26  1  0  0  0  0
 10 27  1  0  0  0  0
 10 71  1  0  0  0  0
 23 11  1  6  0  0  0
 11 30  1  0  0  0  0
 11 72  1  0  0  0  0
 12 29  1  0  0  0  0
 12 35  1  0  0  0  0
 12 36  1  0  0  0  0
 13 37  1  0  0  0  0
 13 45  1  0  0  0  0
 13 84  1  0  0  0  0
 14 46  2  0  0  0  0
 15 16  1  1  0  0  0
 15 17  1  0  0  0  0
 15 27  1  0  0  0  0
 15 50  1  0  0  0  0
 16 23  1  0  0  0  0
 16 51  1  0  0  0  0
 16 52  1  0  0  0  0
 17 26  1  0  0  0  0
 17 53  1  0  0  0  0
 17 54  1  0  0  0  0
 18 19  1  0  0  0  0
 18 20  1  0  0  0  0
 18 55  1  0  0  0  0
 19 21  1  0  0  0  0
 19 56  1  0  0  0  0
 19 57  1  0  0  0  0
 20 22  1  0  0  0  0
 20 58  1  0  0  0  0
 20 59  1  0  0  0  0
 21 24  1  0  0  0  0
 21 60  1  0  0  0  0
 21 61  1  0  0  0  0
 22 25  1  0  0  0  0
 22 62  1  0  0  0  0
 22 63  1  0  0  0  0
 23 28  1  0  0  0  0
 23 64  1  0  0  0  0
 24 25  1  0  0  0  0
 24 65  1  0  0  0  0
 24 66  1  0  0  0  0
 25 67  1  0  0  0  0
 25 68  1  0  0  0  0
 26 69  1  0  0  0  0
 26 70  1  0  0  0  0
 28 31  2  0  0  0  0
 28 73  1  0  0  0  0
 29 30  1  6  0  0  0
 29 33  1  0  0  0  0
 29 74  1  0  0  0  0
 31 32  1  0  0  0  0
 31 75  1  0  0  0  0
 33 34  1  0  0  0  0
 33 76  1  0  0  0  0
 33 77  1  0  0  0  0
 34 38  2  0  0  0  0
 34 39  1  0  0  0  0
 35 37  1  0  0  0  0
 36 40  2  0  0  0  0
 36 78  1  0  0  0  0
 37 41  2  0  0  0  0
 38 42  1  0  0  0  0
 38 79  1  0  0  0  0
 39 43  2  0  0  0  0
 39 80  1  0  0  0  0
 40 41  1  0  0  0  0
 40 81  1  0  0  0  0
 41 82  1  0  0  0  0
 42 44  2  0  0  0  0
 43 44  1  0  0  0  0
 43 83  1  0  0  0  0
 45 46  1  0  0  0  0
 46 47  1  0  0  0  0
 47 48  2  0  0  0  0
 47 85  1  0  0  0  0
 48 49  1  0  0  0  0
 49 86  1  0  0  0  0
 49 87  1  0  0  0  0
 49 88  1  0  0  0  0
M  END
> <PUBCHEM_COMPOUND_CID>
15954628

> <PUBCHEM_COMPOUND_CANONICALIZED>
1

> <PUBCHEM_CACTVS_COMPLEXITY>
1320

> <PUBCHEM_CACTVS_HBOND_ACCEPTOR>
10

> <PUBCHEM_CACTVS_HBOND_DONOR>
3

> <PUBCHEM_CACTVS_ROTATABLE_BOND>
13

> <PUBCHEM_CACTVS_SUBSKEYS>
AAADcfB/uYAAAAAAAAAAAAAAAAAAAWLAAAAwQAAABgAAAAABwAAAHwAUAAAADTzhng4yjJPQBACpA6X2WgCCAAAmIgAomKG+bNoIZjqAtbOWMYhmlhiI6ce/yKCOAAAAAAAAAAAAAAAAAAAAAAAAAAAAAA==

> <PUBCHEM_IUPAC_OPENEYE_NAME>
cycloheptyl (E,4S)-4-[[(2S)-3-(3,4-difluorophenyl)-2-[3-[(5-methylisoxazole-3-carbonyl)amino]-2-oxo-1-pyridyl]propanoyl]amino]-5-[(3S)-2-oxopyrrolidin-3-yl]pent-2-enoate

> <PUBCHEM_IUPAC_CAS_NAME>
(E,4S)-4-[[(2S)-3-(3,4-difluorophenyl)-2-[3-[[(5-methyl-3-isoxazolyl)-oxomethyl]amino]-2-oxo-1-pyridinyl]-1-oxopropyl]amino]-5-[(3S)-2-oxo-3-pyrrolidinyl]-2-pentenoic acid cycloheptyl ester

> <PUBCHEM_IUPAC_NAME_MARKUP>
cycloheptyl (<I>E</I>,4<I>S</I>)-4-[[(2<I>S</I>)-3-(3,4-difluorophenyl)-2-[3-[(5-methyl-1,2-oxazole-3-carbonyl)amino]-2-oxopyridin-1-yl]propanoyl]amino]-5-[(3<I>S</I>)-2-oxopyrrolidin-3-yl]pent-2-enoate

> <PUBCHEM_IUPAC_NAME>
cycloheptyl (E,4S)-4-[[(2S)-3-(3,4-difluorophenyl)-2-[3-[(5-methyl-1,2-oxazole-3-carbonyl)amino]-2-oxopyridin-1-yl]propanoyl]amino]-5-[(3S)-2-oxopyrrolidin-3-yl]pent-2-enoate

> <PUBCHEM_IUPAC_SYSTEMATIC_NAME>
cycloheptyl (E,4S)-4-[[(2S)-3-[3,4-bis(fluoranyl)phenyl]-2-[3-[(5-methyl-1,2-oxazol-3-yl)carbonylamino]-2-oxidanylidene-pyridin-1-yl]propanoyl]amino]-5-[(3S)-2-oxidanylidenepyrrolidin-3-yl]pent-2-enoate

> <PUBCHEM_IUPAC_TRADITIONAL_NAME>
(E,4S)-4-[[(2S)-3-(3,4-difluorophenyl)-2-[2-keto-3-[(5-methylisoxazole-3-carbonyl)amino]-1-pyridyl]propanoyl]amino]-5-[(3S)-2-ketopyrrolidin-3-yl]pent-2-enoic acid cycloheptyl ester

> <PUBCHEM_IUPAC_INCHI>
InChI=1S/C35H39F2N5O7/c1-21-17-29(41-49-21)33(45)40-28-9-6-16-42(35(28)47)30(19-22-10-12-26(36)27(37)18-22)34(46)39-24(20-23-14-15-38-32(23)44)11-13-31(43)48-25-7-4-2-3-5-8-25/h6,9-13,16-18,23-25,30H,2-5,7-8,14-15,19-20H2,1H3,(H,38,44)(H,39,46)(H,40,45)/b13-11+/t23-,24+,30-/m0/s1

> <PUBCHEM_IUPAC_INCHIKEY>
RXSDMHXLCSXVNK-XUIACOEUSA-N

> <PUBCHEM_XLOGP3_AA>
4.5

> <PUBCHEM_EXACT_MASS>
679.281755

> <PUBCHEM_MOLECULAR_FORMULA>
C35H39F2N5O7

> <PUBCHEM_MOLECULAR_WEIGHT>
679.7

> <PUBCHEM_OPENEYE_CAN_SMILES>
CC1=CC(=NO1)C(=O)NC2=CC=CN(C2=O)C(CC3=CC(=C(C=C3)F)F)C(=O)NC(CC4CCNC4=O)C=CC(=O)OC5CCCCCC5

> <PUBCHEM_OPENEYE_ISO_SMILES>
CC1=CC(=NO1)C(=O)NC2=CC=CN(C2=O)[C@@H](CC3=CC(=C(C=C3)F)F)C(=O)N[C@@H](C[C@@H]4CCNC4=O)/C=C/C(=O)OC5CCCCCC5

> <PUBCHEM_CACTVS_TPSA>
160

> <PUBCHEM_MONOISOTOPIC_WEIGHT>
679.281755

> <PUBCHEM_TOTAL_CHARGE>
0

> <PUBCHEM_HEAVY_ATOM_COUNT>
49

> <PUBCHEM_ATOM_DEF_STEREO_COUNT>
3

> <PUBCHEM_ATOM_UDEF_STEREO_COUNT>
0

> <PUBCHEM_BOND_DEF_STEREO_COUNT>
1

> <PUBCHEM_BOND_UDEF_STEREO_COUNT>
0

> <PUBCHEM_ISOTOPIC_ATOM_COUNT>
0

> <PUBCHEM_COMPONENT_COUNT>
1

> <PUBCHEM_CACTVS_TAUTO_COUNT>
-1

> <PUBCHEM_COORDINATE_TYPE>
1
5
255

> <PUBCHEM_BONDANNOTATIONS>
23  11  6
12  35  8
12  36  8
14  46  8
15  16  5
29  30  6
34  38  8
34  39  8
35  37  8
36  40  8
37  41  8
38  42  8
39  43  8
40  41  8
42  44  8
43  44  8
46  47  8
47  48  8
9  14  8
9  48  8

$$$$
15954633
  -OEChem-02212016592D

 78 81  0     1  0  0  0  0  0999 V2000
    5.3147   -5.5580    0.0000 F   0  0  0  0  0  0  0  0  0  0  0  0
   10.7663   -1.6731    0.0000 O   0  0  0  0  0  0  0  0  0  0  0  0
    7.0468   -2.5580    0.0000 O   0  0  0  0  0  0  0  0  0  0  0  0
   10.5109    1.4420    0.0000 O   0  0  0  0  0  0  0  0  0  0  0  0
    4.4487   -0.0580    0.0000 O   0  0  0  0  0  0  0  0  0  0  0  0
   11.3769   -0.0580    0.0000 O   0  0  0  0  0  0  0  0  0  0  0  0
    5.3147    3.4420    0.0000 O   0  0  0  0  0  0  0  0  0  0  0  0
    2.0000    3.7784    0.0000 O   0  0  0  0  0  0  0  0  0  0  0  0
   11.2275   -3.3944    0.0000 N   0  0  0  0  0  0  0  0  0  0  0  0
    7.9128   -1.0580    0.0000 N   0  0  0  0  0  0  0  0  0  0  0  0
    6.1808   -0.0580    0.0000 N   0  0  0  0  0  0  0  0  0  0  0  0
    4.4487    1.9420    0.0000 N   0  0  0  0  0  0  0  0  0  0  0  0
    2.6691    3.0353    0.0000 N   0  0  0  0  0  0  0  0  0  0  0  0
    9.6448   -3.0580    0.0000 C   0  0  2  0  0  0  0  0  0  0  0  0
    8.7788   -2.5580    0.0000 C   0  0  0  0  0  0  0  0  0  0  0  0
    9.7494   -4.0525    0.0000 C   0  0  0  0  0  0  0  0  0  0  0  0
    8.7788   -1.5580    0.0000 C   0  0  1  0  0  0  0  0  0  0  0  0
   10.7275   -4.2604    0.0000 C   0  0  0  0  0  0  0  0  0  0  0  0
   10.5584   -2.6512    0.0000 C   0  0  0  0  0  0  0  0  0  0  0  0
    6.1808   -1.0580    0.0000 C   0  0  2  0  0  0  0  0  0  0  0  0
    9.6448   -1.0580    0.0000 C   0  0  0  0  0  0  0  0  0  0  0  0
    7.0468   -1.5580    0.0000 C   0  0  0  0  0  0  0  0  0  0  0  0
    5.3147   -1.5580    0.0000 C   0  0  0  0  0  0  0  0  0  0  0  0
    9.6448   -0.0580    0.0000 C   0  0  0  0  0  0  0  0  0  0  0  0
    5.3147   -2.5580    0.0000 C   0  0  0  0  0  0  0  0  0  0  0  0
    5.3147    0.4420    0.0000 C   0  0  0  0  0  0  0  0  0  0  0  0
    7.0468    0.4420    0.0000 C   0  0  0  0  0  0  0  0  0  0  0  0
    5.3147    1.4420    0.0000 C   0  0  0  0  0  0  0  0  0  0  0  0
    6.1808   -3.0580    0.0000 C   0  0  0  0  0  0  0  0  0  0  0  0
    4.4487   -3.0580    0.0000 C   0  0  0  0  0  0  0  0  0  0  0  0
   10.5109    0.4420    0.0000 C   0  0  0  0  0  0  0  0  0  0  0  0
    7.0468    1.4420    0.0000 C   0  0  0  0  0  0  0  0  0  0  0  0
    6.1808    1.9420    0.0000 C   0  0  0  0  0  0  0  0  0  0  0  0
    6.1808   -4.0580    0.0000 C   0  0  0  0  0  0  0  0  0  0  0  0
    4.4487   -4.0580    0.0000 C   0  0  0  0  0  0  0  0  0  0  0  0
    5.3147   -4.5580    0.0000 C   0  0  0  0  0  0  0  0  0  0  0  0
   11.3769    1.9420    0.0000 C   0  0  0  0  0  0  0  0  0  0  0  0
    4.4487    2.9420    0.0000 C   0  0  0  0  0  0  0  0  0  0  0  0
   11.3769    2.9420    0.0000 C   0  0  0  0  0  0  0  0  0  0  0  0
   12.2429    1.4420    0.0000 C   0  0  0  0  0  0  0  0  0  0  0  0
    3.5827    3.4420    0.0000 C   0  0  0  0  0  0  0  0  0  0  0  0
    3.4782    4.4365    0.0000 C   0  0  0  0  0  0  0  0  0  0  0  0
    2.5000    4.6444    0.0000 C   0  0  0  0  0  0  0  0  0  0  0  0
    2.0933    5.5580    0.0000 C   0  0  0  0  0  0  0  0  0  0  0  0
    9.1249   -3.3957    0.0000 H   0  0  0  0  0  0  0  0  0  0  0  0
    8.1682   -2.4503    0.0000 H   0  0  0  0  0  0  0  0  0  0  0  0
    8.5668   -3.1406    0.0000 H   0  0  0  0  0  0  0  0  0  0  0  0
    9.1294   -4.0525    0.0000 H   0  0  0  0  0  0  0  0  0  0  0  0
    9.6846   -4.6691    0.0000 H   0  0  0  0  0  0  0  0  0  0  0  0
    8.2419   -1.8680    0.0000 H   0  0  0  0  0  0  0  0  0  0  0  0
   10.5359   -4.8501    0.0000 H   0  0  0  0  0  0  0  0  0  0  0  0
   11.2939   -4.5126    0.0000 H   0  0  0  0  0  0  0  0  0  0  0  0
   11.8441   -3.3296    0.0000 H   0  0  0  0  0  0  0  0  0  0  0  0
    7.9128   -0.4380    0.0000 H   0  0  0  0  0  0  0  0  0  0  0  0
    6.7177   -0.7480    0.0000 H   0  0  0  0  0  0  0  0  0  0  0  0
   10.1818   -1.3680    0.0000 H   0  0  0  0  0  0  0  0  0  0  0  0
    5.1027   -0.9754    0.0000 H   0  0  0  0  0  0  0  0  0  0  0  0
    4.7042   -1.6656    0.0000 H   0  0  0  0  0  0  0  0  0  0  0  0
    9.1079    0.2520    0.0000 H   0  0  0  0  0  0  0  0  0  0  0  0
    7.5837    0.1320    0.0000 H   0  0  0  0  0  0  0  0  0  0  0  0
    6.7177   -2.7480    0.0000 H   0  0  0  0  0  0  0  0  0  0  0  0
    3.9118   -2.7480    0.0000 H   0  0  0  0  0  0  0  0  0  0  0  0
    7.5837    1.7520    0.0000 H   0  0  0  0  0  0  0  0  0  0  0  0
    6.1808    2.5620    0.0000 H   0  0  0  0  0  0  0  0  0  0  0  0
    6.7177   -4.3680    0.0000 H   0  0  0  0  0  0  0  0  0  0  0  0
    3.9118   -4.3680    0.0000 H   0  0  0  0  0  0  0  0  0  0  0  0
    3.9118    1.6320    0.0000 H   0  0  0  0  0  0  0  0  0  0  0  0
   10.8400    2.2520    0.0000 H   0  0  0  0  0  0  0  0  0  0  0  0
   11.9969    2.9420    0.0000 H   0  0  0  0  0  0  0  0  0  0  0  0
   11.3769    3.5620    0.0000 H   0  0  0  0  0  0  0  0  0  0  0  0
   10.7569    2.9420    0.0000 H   0  0  0  0  0  0  0  0  0  0  0  0
   11.9329    0.9051    0.0000 H   0  0  0  0  0  0  0  0  0  0  0  0
   12.7799    1.1320    0.0000 H   0  0  0  0  0  0  0  0  0  0  0  0
   12.5529    1.9790    0.0000 H   0  0  0  0  0  0  0  0  0  0  0  0
    3.9389    4.8514    0.0000 H   0  0  0  0  0  0  0  0  0  0  0  0
    2.6597    5.8102    0.0000 H   0  0  0  0  0  0  0  0  0  0  0  0
    1.8411    6.1244    0.0000 H   0  0  0  0  0  0  0  0  0  0  0  0
    1.5269    5.3058    0.0000 H   0  0  0  0  0  0  0  0  0  0  0  0
  1 36  1  0  0  0  0
  2 19  2  0  0  0  0
  3 22  2  0  0  0  0
  4 31  1  0  0  0  0
  4 37  1  0  0  0  0
  5 26  2  0  0  0  0
  6 31  2  0  0  0  0
  7 38  2  0  0  0  0
  8 13  1  0  0  0  0
  8 43  1  0  0  0  0
  9 18  1  0  0  0  0
  9 19  1  0  0  0  0
  9 53  1  0  0  0  0
 17 10  1  6  0  0  0
 10 22  1  0  0  0  0
 10 54  1  0  0  0  0
 11 20  1  0  0  0  0
 11 26  1  0  0  0  0
 11 27  1  0  0  0  0
 12 28  1  0  0  0  0
 12 38  1  0  0  0  0
 12 67  1  0  0  0  0
 13 41  2  0  0  0  0
 14 15  1  1  0  0  0
 14 16  1  0  0  0  0
 14 19  1  0  0  0  0
 14 45  1  0  0  0  0
 15 17  1  0  0  0  0
 15 46  1  0  0  0  0
 15 47  1  0  0  0  0
 16 18  1  0  0  0  0
 16 48  1  0  0  0  0
 16 49  1  0  0  0  0
 17 21  1  0  0  0  0
 17 50  1  0  0  0  0
 18 51  1  0  0  0  0
 18 52  1  0  0  0  0
 20 22  1  6  0  0  0
 20 23  1  0  0  0  0
 20 55  1  0  0  0  0
 21 24  2  0  0  0  0
 21 56  1  0  0  0  0
 23 25  1  0  0  0  0
 23 57  1  0  0  0  0
 23 58  1  0  0  0  0
 24 31  1  0  0  0  0
 24 59  1  0  0  0  0
 25 29  2  0  0  0  0
 25 30  1  0  0  0  0
 26 28  1  0  0  0  0
 27 32  2  0  0  0  0
 27 60  1  0  0  0  0
 28 33  2  0  0  0  0
 29 34  1  0  0  0  0
 29 61  1  0  0  0  0
 30 35  2  0  0  0  0
 30 62  1  0  0  0  0
 32 33  1  0  0  0  0
 32 63  1  0  0  0  0
 33 64  1  0  0  0  0
 34 36  2  0  0  0  0
 34 65  1  0  0  0  0
 35 36  1  0  0  0  0
 35 66  1  0  0  0  0
 37 39  1  0  0  0  0
 37 40  1  0  0  0  0
 37 68  1  0  0  0  0
 38 41  1  0  0  0  0
 39 69  1  0  0  0  0
 39 70  1  0  0  0  0
 39 71  1  0  0  0  0
 40 72  1  0  0  0  0
 40 73  1  0  0  0  0
 40 74  1  0  0  0  0
 41 42  1  0  0  0  0
 42 43  2  0  0  0  0
 42 75  1  0  0  0  0
 43 44  1  0  0  0  0
 44 76  1  0  0  0  0
 44 77  1  0  0  0  0
 44 78  1  0  0  0  0
M  END
> <PUBCHEM_COMPOUND_CID>
15954633

> <PUBCHEM_COMPOUND_CANONICALIZED>
1

> <PUBCHEM_CACTVS_COMPLEXITY>
1180

> <PUBCHEM_CACTVS_HBOND_ACCEPTOR>
9

> <PUBCHEM_CACTVS_HBOND_DONOR>
3

> <PUBCHEM_CACTVS_ROTATABLE_BOND>
13

> <PUBCHEM_CACTVS_SUBSKEYS>
AAADcfB7uQAAAAAAAAAAAAAAAAAAAWLAAAAwQAAAAAAAAAABwAAAHwAUAAAADTzhng4yjJPQBACpA6X2WgCCAAAmIgAomKG+bNoIZjqAtbOWMYhmlhiI6cc/iICOAAAAAAAAAAAAAAAAAAAAAAAAAAAAAA==

> <PUBCHEM_IUPAC_OPENEYE_NAME>
isopropyl (E,4S)-4-[[(2S)-3-(4-fluorophenyl)-2-[3-[(5-methylisoxazole-3-carbonyl)amino]-2-oxo-1-pyridyl]propanoyl]amino]-5-[(3S)-2-oxopyrrolidin-3-yl]pent-2-enoate

> <PUBCHEM_IUPAC_CAS_NAME>
(E,4S)-4-[[(2S)-3-(4-fluorophenyl)-2-[3-[[(5-methyl-3-isoxazolyl)-oxomethyl]amino]-2-oxo-1-pyridinyl]-1-oxopropyl]amino]-5-[(3S)-2-oxo-3-pyrrolidinyl]-2-pentenoic acid propan-2-yl ester

> <PUBCHEM_IUPAC_NAME_MARKUP>
propan-2-yl (<I>E</I>,4<I>S</I>)-4-[[(2<I>S</I>)-3-(4-fluorophenyl)-2-[3-[(5-methyl-1,2-oxazole-3-carbonyl)amino]-2-oxopyridin-1-yl]propanoyl]amino]-5-[(3<I>S</I>)-2-oxopyrrolidin-3-yl]pent-2-enoate

> <PUBCHEM_IUPAC_NAME>
propan-2-yl (E,4S)-4-[[(2S)-3-(4-fluorophenyl)-2-[3-[(5-methyl-1,2-oxazole-3-carbonyl)amino]-2-oxopyridin-1-yl]propanoyl]amino]-5-[(3S)-2-oxopyrrolidin-3-yl]pent-2-enoate

> <PUBCHEM_IUPAC_SYSTEMATIC_NAME>
propan-2-yl (E,4S)-4-[[(2S)-3-(4-fluorophenyl)-2-[3-[(5-methyl-1,2-oxazol-3-yl)carbonylamino]-2-oxidanylidene-pyridin-1-yl]propanoyl]amino]-5-[(3S)-2-oxidanylidenepyrrolidin-3-yl]pent-2-enoate

> <PUBCHEM_IUPAC_TRADITIONAL_NAME>
(E,4S)-4-[[(2S)-3-(4-fluorophenyl)-2-[2-keto-3-[(5-methylisoxazole-3-carbonyl)amino]-1-pyridyl]propanoyl]amino]-5-[(3S)-2-ketopyrrolidin-3-yl]pent-2-enoic acid isopropyl ester

> <PUBCHEM_IUPAC_INCHI>
InChI=1S/C31H34FN5O7/c1-18(2)43-27(38)11-10-23(17-21-12-13-33-28(21)39)34-30(41)26(16-20-6-8-22(32)9-7-20)37-14-4-5-24(31(37)42)35-29(40)25-15-19(3)44-36-25/h4-11,14-15,18,21,23,26H,12-13,16-17H2,1-3H3,(H,33,39)(H,34,41)(H,35,40)/b11-10+/t21-,23+,26-/m0/s1

> <PUBCHEM_IUPAC_INCHIKEY>
SZDNDCIRAQSZGT-LXNMPQBYSA-N

> <PUBCHEM_XLOGP3_AA>
2.8

> <PUBCHEM_EXACT_MASS>
607.244227

> <PUBCHEM_MOLECULAR_FORMULA>
C31H34FN5O7

> <PUBCHEM_MOLECULAR_WEIGHT>
607.6

> <PUBCHEM_OPENEYE_CAN_SMILES>
CC1=CC(=NO1)C(=O)NC2=CC=CN(C2=O)C(CC3=CC=C(C=C3)F)C(=O)NC(CC4CCNC4=O)C=CC(=O)OC(C)C

> <PUBCHEM_OPENEYE_ISO_SMILES>
CC1=CC(=NO1)C(=O)NC2=CC=CN(C2=O)[C@@H](CC3=CC=C(C=C3)F)C(=O)N[C@@H](C[C@@H]4CCNC4=O)/C=C/C(=O)OC(C)C

> <PUBCHEM_CACTVS_TPSA>
160

> <PUBCHEM_MONOISOTOPIC_WEIGHT>
607.244227

> <PUBCHEM_TOTAL_CHARGE>
0

> <PUBCHEM_HEAVY_ATOM_COUNT>
44

> <PUBCHEM_ATOM_DEF_STEREO_COUNT>
3

> <PUBCHEM_ATOM_UDEF_STEREO_COUNT>
0

> <PUBCHEM_BOND_DEF_STEREO_COUNT>
1

> <PUBCHEM_BOND_UDEF_STEREO_COUNT>
0

> <PUBCHEM_ISOTOPIC_ATOM_COUNT>
0

> <PUBCHEM_COMPONENT_COUNT>
1

> <PUBCHEM_CACTVS_TAUTO_COUNT>
-1

> <PUBCHEM_COORDINATE_TYPE>
1
5
255

> <PUBCHEM_BONDANNOTATIONS>
17  10  6
11  26  8
11  27  8
13  41  8
14  15  5
20  22  6
25  29  8
25  30  8
26  28  8
27  32  8
28  33  8
29  34  8
30  35  8
32  33  8
34  36  8
35  36  8
41  42  8
42  43  8
8  13  8
8  43  8

$$$$
15956553
  -OEChem-02212016592D

 81 83  0     1  0  0  0  0  0999 V2000
    9.0062   -5.0872    0.0000 O   0  0  0  0  0  0  0  0  0  0  0  0
    7.0468   -2.9236    0.0000 O   0  0  0  0  0  0  0  0  0  0  0  0
    4.4487   -0.4236    0.0000 O   0  0  0  0  0  0  0  0  0  0  0  0
   11.3769   -0.4236    0.0000 O   0  0  0  0  0  0  0  0  0  0  0  0
   10.5109    1.0764    0.0000 O   0  0  0  0  0  0  0  0  0  0  0  0
    5.3147    3.0764    0.0000 O   0  0  0  0  0  0  0  0  0  0  0  0
    2.0000    3.4128    0.0000 O   0  0  0  0  0  0  0  0  0  0  0  0
   10.7275   -4.6260    0.0000 N   0  0  0  0  0  0  0  0  0  0  0  0
    7.9128   -1.4236    0.0000 N   0  0  0  0  0  0  0  0  0  0  0  0
    6.1808   -0.4236    0.0000 N   0  0  0  0  0  0  0  0  0  0  0  0
    4.4487    1.5764    0.0000 N   0  0  0  0  0  0  0  0  0  0  0  0
    2.6691    2.6697    0.0000 N   0  0  0  0  0  0  0  0  0  0  0  0
    9.6448   -3.4236    0.0000 C   0  0  2  0  0  0  0  0  0  0  0  0
    8.7788   -2.9236    0.0000 C   0  0  0  0  0  0  0  0  0  0  0  0
   10.5584   -3.0168    0.0000 C   0  0  0  0  0  0  0  0  0  0  0  0
    8.7788   -1.9236    0.0000 C   0  0  1  0  0  0  0  0  0  0  0  0
   11.2275   -3.7600    0.0000 C   0  0  0  0  0  0  0  0  0  0  0  0
    9.7494   -4.4181    0.0000 C   0  0  0  0  0  0  0  0  0  0  0  0
    6.1808   -1.4236    0.0000 C   0  0  2  0  0  0  0  0  0  0  0  0
    9.6448   -1.4236    0.0000 C   0  0  0  0  0  0  0  0  0  0  0  0
    7.0468   -1.9236    0.0000 C   0  0  0  0  0  0  0  0  0  0  0  0
    5.3147    1.0764    0.0000 C   0  0  1  0  0  0  0  0  0  0  0  0
    5.3147   -1.9236    0.0000 C   0  0  0  0  0  0  0  0  0  0  0  0
    6.1808    1.5764    0.0000 C   0  0  0  0  0  0  0  0  0  0  0  0
    5.3147    0.0764    0.0000 C   0  0  0  0  0  0  0  0  0  0  0  0
    9.6448   -0.4236    0.0000 C   0  0  0  0  0  0  0  0  0  0  0  0
    5.3147   -2.9236    0.0000 C   0  0  0  0  0  0  0  0  0  0  0  0
    6.1808    2.5764    0.0000 C   0  0  0  0  0  0  0  0  0  0  0  0
    7.0468    1.0764    0.0000 C   0  0  0  0  0  0  0  0  0  0  0  0
    4.4487   -3.4236    0.0000 C   0  0  0  0  0  0  0  0  0  0  0  0
    6.1808   -3.4236    0.0000 C   0  0  0  0  0  0  0  0  0  0  0  0
   10.5109    0.0764    0.0000 C   0  0  0  0  0  0  0  0  0  0  0  0
    4.4487    2.5764    0.0000 C   0  0  0  0  0  0  0  0  0  0  0  0
    4.4487   -4.4236    0.0000 C   0  0  0  0  0  0  0  0  0  0  0  0
    6.1808   -4.4236    0.0000 C   0  0  0  0  0  0  0  0  0  0  0  0
    3.5827    3.0764    0.0000 C   0  0  0  0  0  0  0  0  0  0  0  0
    5.3147   -4.9236    0.0000 C   0  0  0  0  0  0  0  0  0  0  0  0
    3.4782    4.0710    0.0000 C   0  0  0  0  0  0  0  0  0  0  0  0
   12.2429    0.0764    0.0000 C   0  0  0  0  0  0  0  0  0  0  0  0
    2.5000    4.2789    0.0000 C   0  0  0  0  0  0  0  0  0  0  0  0
   13.1090   -0.4236    0.0000 C   0  0  0  0  0  0  0  0  0  0  0  0
    2.0933    5.1924    0.0000 C   0  0  0  0  0  0  0  0  0  0  0  0
    9.1249   -3.7612    0.0000 H   0  0  0  0  0  0  0  0  0  0  0  0
    8.1682   -2.8159    0.0000 H   0  0  0  0  0  0  0  0  0  0  0  0
    8.5668   -3.5062    0.0000 H   0  0  0  0  0  0  0  0  0  0  0  0
   11.0600   -2.6524    0.0000 H   0  0  0  0  0  0  0  0  0  0  0  0
   10.2484   -2.4799    0.0000 H   0  0  0  0  0  0  0  0  0  0  0  0
    8.2419   -2.2336    0.0000 H   0  0  0  0  0  0  0  0  0  0  0  0
   11.7291   -4.1244    0.0000 H   0  0  0  0  0  0  0  0  0  0  0  0
   11.6424   -3.2992    0.0000 H   0  0  0  0  0  0  0  0  0  0  0  0
   10.9797   -5.1924    0.0000 H   0  0  0  0  0  0  0  0  0  0  0  0
    7.9128   -0.8036    0.0000 H   0  0  0  0  0  0  0  0  0  0  0  0
    6.7177   -1.1136    0.0000 H   0  0  0  0  0  0  0  0  0  0  0  0
   10.1818   -1.7336    0.0000 H   0  0  0  0  0  0  0  0  0  0  0  0
    5.3147    1.6964    0.0000 H   0  0  0  0  0  0  0  0  0  0  0  0
    5.1027   -1.3410    0.0000 H   0  0  0  0  0  0  0  0  0  0  0  0
    4.7042   -2.0312    0.0000 H   0  0  0  0  0  0  0  0  0  0  0  0
    6.1808    0.9564    0.0000 H   0  0  0  0  0  0  0  0  0  0  0  0
    6.7177   -0.1136    0.0000 H   0  0  0  0  0  0  0  0  0  0  0  0
    9.1079   -0.1136    0.0000 H   0  0  0  0  0  0  0  0  0  0  0  0
    6.8008    2.5764    0.0000 H   0  0  0  0  0  0  0  0  0  0  0  0
    6.1808    3.1964    0.0000 H   0  0  0  0  0  0  0  0  0  0  0  0
    5.5608    2.5764    0.0000 H   0  0  0  0  0  0  0  0  0  0  0  0
    6.7368    0.5395    0.0000 H   0  0  0  0  0  0  0  0  0  0  0  0
    7.5837    0.7664    0.0000 H   0  0  0  0  0  0  0  0  0  0  0  0
    7.3568    1.6134    0.0000 H   0  0  0  0  0  0  0  0  0  0  0  0
    3.9118    1.2664    0.0000 H   0  0  0  0  0  0  0  0  0  0  0  0
    3.9118   -3.1136    0.0000 H   0  0  0  0  0  0  0  0  0  0  0  0
    6.7177   -3.1136    0.0000 H   0  0  0  0  0  0  0  0  0  0  0  0
    3.9118   -4.7336    0.0000 H   0  0  0  0  0  0  0  0  0  0  0  0
    6.7177   -4.7336    0.0000 H   0  0  0  0  0  0  0  0  0  0  0  0
    5.3147   -5.5436    0.0000 H   0  0  0  0  0  0  0  0  0  0  0  0
    3.9389    4.4858    0.0000 H   0  0  0  0  0  0  0  0  0  0  0  0
   12.6415    0.5514    0.0000 H   0  0  0  0  0  0  0  0  0  0  0  0
   11.8444    0.5514    0.0000 H   0  0  0  0  0  0  0  0  0  0  0  0
   12.7990   -0.9605    0.0000 H   0  0  0  0  0  0  0  0  0  0  0  0
   13.6459   -0.7336    0.0000 H   0  0  0  0  0  0  0  0  0  0  0  0
   13.4190    0.1134    0.0000 H   0  0  0  0  0  0  0  0  0  0  0  0
    2.6597    5.4446    0.0000 H   0  0  0  0  0  0  0  0  0  0  0  0
    1.8411    5.7588    0.0000 H   0  0  0  0  0  0  0  0  0  0  0  0
    1.5269    4.9402    0.0000 H   0  0  0  0  0  0  0  0  0  0  0  0
  1 18  2  0  0  0  0
  2 21  2  0  0  0  0
  3 25  2  0  0  0  0
  4 32  1  0  0  0  0
  4 39  1  0  0  0  0
  5 32  2  0  0  0  0
  6 33  2  0  0  0  0
  7 12  1  0  0  0  0
  7 40  1  0  0  0  0
  8 17  1  0  0  0  0
  8 18  1  0  0  0  0
  8 51  1  0  0  0  0
 16  9  1  6  0  0  0
  9 21  1  0  0  0  0
  9 52  1  0  0  0  0
 19 10  1  6  0  0  0
 10 25  1  0  0  0  0
 10 59  1  0  0  0  0
 22 11  1  1  0  0  0
 11 33  1  0  0  0  0
 11 67  1  0  0  0  0
 12 36  2  0  0  0  0
 13 14  1  6  0  0  0
 13 15  1  0  0  0  0
 13 18  1  0  0  0  0
 13 43  1  0  0  0  0
 14 16  1  0  0  0  0
 14 44  1  0  0  0  0
 14 45  1  0  0  0  0
 15 17  1  0  0  0  0
 15 46  1  0  0  0  0
 15 47  1  0  0  0  0
 16 20  1  0  0  0  0
 16 48  1  0  0  0  0
 17 49  1  0  0  0  0
 17 50  1  0  0  0  0
 19 21  1  0  0  0  0
 19 23  1  0  0  0  0
 19 53  1  0  0  0  0
 20 26  2  0  0  0  0
 20 54  1  0  0  0  0
 22 24  1  0  0  0  0
 22 25  1  0  0  0  0
 22 55  1  0  0  0  0
 23 27  1  0  0  0  0
 23 56  1  0  0  0  0
 23 57  1  0  0  0  0
 24 28  1  0  0  0  0
 24 29  1  0  0  0  0
 24 58  1  0  0  0  0
 26 32  1  0  0  0  0
 26 60  1  0  0  0  0
 27 30  2  0  0  0  0
 27 31  1  0  0  0  0
 28 61  1  0  0  0  0
 28 62  1  0  0  0  0
 28 63  1  0  0  0  0
 29 64  1  0  0  0  0
 29 65  1  0  0  0  0
 29 66  1  0  0  0  0
 30 34  1  0  0  0  0
 30 68  1  0  0  0  0
 31 35  2  0  0  0  0
 31 69  1  0  0  0  0
 33 36  1  0  0  0  0
 34 37  2  0  0  0  0
 34 70  1  0  0  0  0
 35 37  1  0  0  0  0
 35 71  1  0  0  0  0
 36 38  1  0  0  0  0
 37 72  1  0  0  0  0
 38 40  2  0  0  0  0
 38 73  1  0  0  0  0
 39 41  1  0  0  0  0
 39 74  1  0  0  0  0
 39 75  1  0  0  0  0
 40 42  1  0  0  0  0
 41 76  1  0  0  0  0
 41 77  1  0  0  0  0
 41 78  1  0  0  0  0
 42 79  1  0  0  0  0
 42 80  1  0  0  0  0
 42 81  1  0  0  0  0
M  END
> <PUBCHEM_COMPOUND_CID>
15956553

> <PUBCHEM_COMPOUND_CANONICALIZED>
1

> <PUBCHEM_CACTVS_COMPLEXITY>
981

> <PUBCHEM_CACTVS_HBOND_ACCEPTOR>
8

> <PUBCHEM_CACTVS_HBOND_DONOR>
4

> <PUBCHEM_CACTVS_ROTATABLE_BOND>
15

> <PUBCHEM_CACTVS_SUBSKEYS>
AAADcfB7uAAAAAAAAAAAAAAAAAAAAWLAAAAwAAAAAAAAAAABwAAAHgAUAAAADSzhngYyjJLQBACpA6XyWgCCAAAmIgAomKG+bNoIZjqAtbOWMYhmlhiI6cc/iICOAAAAAAAAAAAAAAAAAAAAAAAAAAAAAA==

> <PUBCHEM_IUPAC_OPENEYE_NAME>
ethyl (E,4S)-4-[[(2S)-2-[[(2S)-3-methyl-2-[(5-methylisoxazole-3-carbonyl)amino]butanoyl]amino]-3-phenyl-propanoyl]amino]-5-[(3S)-2-oxopyrrolidin-3-yl]pent-2-enoate

> <PUBCHEM_IUPAC_CAS_NAME>
(E,4S)-4-[[(2S)-2-[[(2S)-3-methyl-2-[[(5-methyl-3-isoxazolyl)-oxomethyl]amino]-1-oxobutyl]amino]-1-oxo-3-phenylpropyl]amino]-5-[(3S)-2-oxo-3-pyrrolidinyl]-2-pentenoic acid ethyl ester

> <PUBCHEM_IUPAC_NAME_MARKUP>
ethyl (<I>E</I>,4<I>S</I>)-4-[[(2<I>S</I>)-2-[[(2<I>S</I>)-3-methyl-2-[(5-methyl-1,2-oxazole-3-carbonyl)amino]butanoyl]amino]-3-phenylpropanoyl]amino]-5-[(3<I>S</I>)-2-oxopyrrolidin-3-yl]pent-2-enoate

> <PUBCHEM_IUPAC_NAME>
ethyl (E,4S)-4-[[(2S)-2-[[(2S)-3-methyl-2-[(5-methyl-1,2-oxazole-3-carbonyl)amino]butanoyl]amino]-3-phenylpropanoyl]amino]-5-[(3S)-2-oxopyrrolidin-3-yl]pent-2-enoate

> <PUBCHEM_IUPAC_SYSTEMATIC_NAME>
ethyl (E,4S)-4-[[(2S)-2-[[(2S)-3-methyl-2-[(5-methyl-1,2-oxazol-3-yl)carbonylamino]butanoyl]amino]-3-phenyl-propanoyl]amino]-5-[(3S)-2-oxidanylidenepyrrolidin-3-yl]pent-2-enoate

> <PUBCHEM_IUPAC_TRADITIONAL_NAME>
(E,4S)-5-[(3S)-2-ketopyrrolidin-3-yl]-4-[[(2S)-2-[[(2S)-3-methyl-2-[(5-methylisoxazole-3-carbonyl)amino]butanoyl]amino]-3-phenyl-propanoyl]amino]pent-2-enoic acid ethyl ester

> <PUBCHEM_IUPAC_INCHI>
InChI=1S/C30H39N5O7/c1-5-41-25(36)12-11-22(17-21-13-14-31-27(21)37)32-28(38)23(16-20-9-7-6-8-10-20)33-30(40)26(18(2)3)34-29(39)24-15-19(4)42-35-24/h6-12,15,18,21-23,26H,5,13-14,16-17H2,1-4H3,(H,31,37)(H,32,38)(H,33,40)(H,34,39)/b12-11+/t21-,22+,23-,26-/m0/s1

> <PUBCHEM_IUPAC_INCHIKEY>
PANGWSCMXDVPFP-BNQYSQCVSA-N

> <PUBCHEM_XLOGP3_AA>
2.7

> <PUBCHEM_EXACT_MASS>
581.284949

> <PUBCHEM_MOLECULAR_FORMULA>
C30H39N5O7

> <PUBCHEM_MOLECULAR_WEIGHT>
581.7

> <PUBCHEM_OPENEYE_CAN_SMILES>
CCOC(=O)C=CC(CC1CCNC1=O)NC(=O)C(CC2=CC=CC=C2)NC(=O)C(C(C)C)NC(=O)C3=NOC(=C3)C

> <PUBCHEM_OPENEYE_ISO_SMILES>
CCOC(=O)/C=C/[C@H](C[C@@H]1CCNC1=O)NC(=O)[C@H](CC2=CC=CC=C2)NC(=O)[C@H](C(C)C)NC(=O)C3=NOC(=C3)C

> <PUBCHEM_CACTVS_TPSA>
169

> <PUBCHEM_MONOISOTOPIC_WEIGHT>
581.284949

> <PUBCHEM_TOTAL_CHARGE>
0

> <PUBCHEM_HEAVY_ATOM_COUNT>
42

> <PUBCHEM_ATOM_DEF_STEREO_COUNT>
4

> <PUBCHEM_ATOM_UDEF_STEREO_COUNT>
0

> <PUBCHEM_BOND_DEF_STEREO_COUNT>
1

> <PUBCHEM_BOND_UDEF_STEREO_COUNT>
0

> <PUBCHEM_ISOTOPIC_ATOM_COUNT>
0

> <PUBCHEM_COMPONENT_COUNT>
1

> <PUBCHEM_CACTVS_TAUTO_COUNT>
-1

> <PUBCHEM_COORDINATE_TYPE>
1
5
255

> <PUBCHEM_BONDANNOTATIONS>
19  10  6
22  11  5
12  36  8
13  14  6
27  30  8
27  31  8
30  34  8
31  35  8
34  37  8
35  37  8
36  38  8
38  40  8
7  12  8
7  40  8
16  9  6

$$$$
15959300
  -OEChem-02212016592D

 80 82  0     1  0  0  0  0  0999 V2000
    4.4487   -0.5580    0.0000 O   0  0  0  0  0  0  0  0  0  0  0  0
    7.0468   -3.0580    0.0000 O   0  0  0  0  0  0  0  0  0  0  0  0
    5.3147    2.9420    0.0000 O   0  0  0  0  0  0  0  0  0  0  0  0
    2.0000    3.2784    0.0000 O   0  0  0  0  0  0  0  0  0  0  0  0
   11.3769   -0.5580    0.0000 O   0  0  0  0  0  0  0  0  0  0  0  0
   10.5109    0.9420    0.0000 O   0  0  0  0  0  0  0  0  0  0  0  0
    6.1808   -0.5580    0.0000 N   0  0  0  0  0  0  0  0  0  0  0  0
    4.4487    1.4420    0.0000 N   0  0  0  0  0  0  0  0  0  0  0  0
    7.9128   -1.5580    0.0000 N   0  0  0  0  0  0  0  0  0  0  0  0
    2.6691    2.5353    0.0000 N   0  0  0  0  0  0  0  0  0  0  0  0
    5.3147    0.9420    0.0000 C   0  0  1  0  0  0  0  0  0  0  0  0
    6.1808    1.4420    0.0000 C   0  0  0  0  0  0  0  0  0  0  0  0
    6.1808   -1.5580    0.0000 C   0  0  1  0  0  0  0  0  0  0  0  0
    5.3147   -0.0580    0.0000 C   0  0  0  0  0  0  0  0  0  0  0  0
    5.3147   -2.0580    0.0000 C   0  0  0  0  0  0  0  0  0  0  0  0
    6.1808    2.4420    0.0000 C   0  0  0  0  0  0  0  0  0  0  0  0
    7.0468    0.9420    0.0000 C   0  0  0  0  0  0  0  0  0  0  0  0
    7.0468   -2.0580    0.0000 C   0  0  0  0  0  0  0  0  0  0  0  0
    8.7788   -2.0580    0.0000 C   0  0  1  0  0  0  0  0  0  0  0  0
    5.3147   -3.0580    0.0000 C   0  0  0  0  0  0  0  0  0  0  0  0
    8.7788   -3.0580    0.0000 C   0  0  0  0  0  0  0  0  0  0  0  0
    4.4487    2.4420    0.0000 C   0  0  0  0  0  0  0  0  0  0  0  0
    9.6448   -3.5580    0.0000 C   0  0  0  0  0  0  0  0  0  0  0  0
    9.6448   -1.5580    0.0000 C   0  0  0  0  0  0  0  0  0  0  0  0
    4.4487   -3.5580    0.0000 C   0  0  0  0  0  0  0  0  0  0  0  0
    6.1808   -3.5580    0.0000 C   0  0  0  0  0  0  0  0  0  0  0  0
    3.5827    2.9420    0.0000 C   0  0  0  0  0  0  0  0  0  0  0  0
    9.6448   -4.5580    0.0000 C   0  0  0  0  0  0  0  0  0  0  0  0
   10.5109   -3.0580    0.0000 C   0  0  0  0  0  0  0  0  0  0  0  0
    4.4487   -4.5580    0.0000 C   0  0  0  0  0  0  0  0  0  0  0  0
    6.1808   -4.5580    0.0000 C   0  0  0  0  0  0  0  0  0  0  0  0
    9.6448   -0.5580    0.0000 C   0  0  0  0  0  0  0  0  0  0  0  0
    5.3147   -5.0580    0.0000 C   0  0  0  0  0  0  0  0  0  0  0  0
   10.5109   -5.0580    0.0000 C   0  0  0  0  0  0  0  0  0  0  0  0
   11.3769   -3.5580    0.0000 C   0  0  0  0  0  0  0  0  0  0  0  0
    3.4782    3.9365    0.0000 C   0  0  0  0  0  0  0  0  0  0  0  0
   11.3769   -4.5580    0.0000 C   0  0  0  0  0  0  0  0  0  0  0  0
    2.5000    4.1444    0.0000 C   0  0  0  0  0  0  0  0  0  0  0  0
   10.5109   -0.0580    0.0000 C   0  0  0  0  0  0  0  0  0  0  0  0
    2.0933    5.0580    0.0000 C   0  0  0  0  0  0  0  0  0  0  0  0
   12.2429   -0.0580    0.0000 C   0  0  0  0  0  0  0  0  0  0  0  0
   13.1090   -0.5580    0.0000 C   0  0  0  0  0  0  0  0  0  0  0  0
    4.7778    0.6320    0.0000 H   0  0  0  0  0  0  0  0  0  0  0  0
    6.7177    1.7520    0.0000 H   0  0  0  0  0  0  0  0  0  0  0  0
    5.6438   -1.2480    0.0000 H   0  0  0  0  0  0  0  0  0  0  0  0
    5.1027   -1.4754    0.0000 H   0  0  0  0  0  0  0  0  0  0  0  0
    4.7042   -2.1656    0.0000 H   0  0  0  0  0  0  0  0  0  0  0  0
    6.7177   -0.2480    0.0000 H   0  0  0  0  0  0  0  0  0  0  0  0
    6.8008    2.4420    0.0000 H   0  0  0  0  0  0  0  0  0  0  0  0
    6.1808    3.0620    0.0000 H   0  0  0  0  0  0  0  0  0  0  0  0
    5.5608    2.4420    0.0000 H   0  0  0  0  0  0  0  0  0  0  0  0
    6.7368    0.4051    0.0000 H   0  0  0  0  0  0  0  0  0  0  0  0
    7.5837    0.6320    0.0000 H   0  0  0  0  0  0  0  0  0  0  0  0
    7.3568    1.4790    0.0000 H   0  0  0  0  0  0  0  0  0  0  0  0
    8.2419   -2.3680    0.0000 H   0  0  0  0  0  0  0  0  0  0  0  0
    3.9118    1.1320    0.0000 H   0  0  0  0  0  0  0  0  0  0  0  0
    7.9128   -0.9380    0.0000 H   0  0  0  0  0  0  0  0  0  0  0  0
    8.1682   -2.9503    0.0000 H   0  0  0  0  0  0  0  0  0  0  0  0
    8.5668   -3.6406    0.0000 H   0  0  0  0  0  0  0  0  0  0  0  0
   10.1818   -1.8680    0.0000 H   0  0  0  0  0  0  0  0  0  0  0  0
    3.9118   -3.2480    0.0000 H   0  0  0  0  0  0  0  0  0  0  0  0
    6.7177   -3.2480    0.0000 H   0  0  0  0  0  0  0  0  0  0  0  0
    9.1079   -4.8680    0.0000 H   0  0  0  0  0  0  0  0  0  0  0  0
   10.5109   -2.4380    0.0000 H   0  0  0  0  0  0  0  0  0  0  0  0
    3.9118   -4.8680    0.0000 H   0  0  0  0  0  0  0  0  0  0  0  0
    6.7177   -4.8680    0.0000 H   0  0  0  0  0  0  0  0  0  0  0  0
    9.1079   -0.2480    0.0000 H   0  0  0  0  0  0  0  0  0  0  0  0
    5.3147   -5.6780    0.0000 H   0  0  0  0  0  0  0  0  0  0  0  0
   10.5109   -5.6780    0.0000 H   0  0  0  0  0  0  0  0  0  0  0  0
   11.9138   -3.2480    0.0000 H   0  0  0  0  0  0  0  0  0  0  0  0
    3.9389    4.3514    0.0000 H   0  0  0  0  0  0  0  0  0  0  0  0
   11.9138   -4.8680    0.0000 H   0  0  0  0  0  0  0  0  0  0  0  0
    2.6597    5.3102    0.0000 H   0  0  0  0  0  0  0  0  0  0  0  0
    1.8411    5.6244    0.0000 H   0  0  0  0  0  0  0  0  0  0  0  0
    1.5269    4.8058    0.0000 H   0  0  0  0  0  0  0  0  0  0  0  0
   12.6415    0.4170    0.0000 H   0  0  0  0  0  0  0  0  0  0  0  0
   11.8444    0.4170    0.0000 H   0  0  0  0  0  0  0  0  0  0  0  0
   12.7990   -1.0949    0.0000 H   0  0  0  0  0  0  0  0  0  0  0  0
   13.6459   -0.8680    0.0000 H   0  0  0  0  0  0  0  0  0  0  0  0
   13.4190   -0.0211    0.0000 H   0  0  0  0  0  0  0  0  0  0  0  0
  1 14  2  0  0  0  0
  2 18  2  0  0  0  0
  3 22  2  0  0  0  0
  4 10  1  0  0  0  0
  4 38  1  0  0  0  0
  5 39  1  0  0  0  0
  5 41  1  0  0  0  0
  6 39  2  0  0  0  0
 13  7  1  6  0  0  0
  7 14  1  0  0  0  0
  7 48  1  0  0  0  0
 11  8  1  1  0  0  0
  8 22  1  0  0  0  0
  8 56  1  0  0  0  0
  9 18  1  0  0  0  0
 19  9  1  6  0  0  0
  9 57  1  0  0  0  0
 10 27  2  0  0  0  0
 11 12  1  0  0  0  0
 11 14  1  0  0  0  0
 11 43  1  0  0  0  0
 12 16  1  0  0  0  0
 12 17  1  0  0  0  0
 12 44  1  0  0  0  0
 13 15  1  0  0  0  0
 13 18  1  0  0  0  0
 13 45  1  0  0  0  0
 15 20  1  0  0  0  0
 15 46  1  0  0  0  0
 15 47  1  0  0  0  0
 16 49  1  0  0  0  0
 16 50  1  0  0  0  0
 16 51  1  0  0  0  0
 17 52  1  0  0  0  0
 17 53  1  0  0  0  0
 17 54  1  0  0  0  0
 19 21  1  0  0  0  0
 19 24  1  0  0  0  0
 19 55  1  0  0  0  0
 20 25  2  0  0  0  0
 20 26  1  0  0  0  0
 21 23  1  0  0  0  0
 21 58  1  0  0  0  0
 21 59  1  0  0  0  0
 22 27  1  0  0  0  0
 23 28  2  0  0  0  0
 23 29  1  0  0  0  0
 24 32  2  0  0  0  0
 24 60  1  0  0  0  0
 25 30  1  0  0  0  0
 25 61  1  0  0  0  0
 26 31  2  0  0  0  0
 26 62  1  0  0  0  0
 27 36  1  0  0  0  0
 28 34  1  0  0  0  0
 28 63  1  0  0  0  0
 29 35  2  0  0  0  0
 29 64  1  0  0  0  0
 30 33  2  0  0  0  0
 30 65  1  0  0  0  0
 31 33  1  0  0  0  0
 31 66  1  0  0  0  0
 32 39  1  0  0  0  0
 32 67  1  0  0  0  0
 33 68  1  0  0  0  0
 34 37  2  0  0  0  0
 34 69  1  0  0  0  0
 35 37  1  0  0  0  0
 35 70  1  0  0  0  0
 36 38  2  0  0  0  0
 36 71  1  0  0  0  0
 37 72  1  0  0  0  0
 38 40  1  0  0  0  0
 40 73  1  0  0  0  0
 40 74  1  0  0  0  0
 40 75  1  0  0  0  0
 41 42  1  0  0  0  0
 41 76  1  0  0  0  0
 41 77  1  0  0  0  0
 42 78  1  0  0  0  0
 42 79  1  0  0  0  0
 42 80  1  0  0  0  0
M  END
> <PUBCHEM_COMPOUND_CID>
15959300

> <PUBCHEM_COMPOUND_CANONICALIZED>
1

> <PUBCHEM_CACTVS_COMPLEXITY>
913

> <PUBCHEM_CACTVS_HBOND_ACCEPTOR>
7

> <PUBCHEM_CACTVS_HBOND_DONOR>
3

> <PUBCHEM_CACTVS_ROTATABLE_BOND>
15

> <PUBCHEM_CACTVS_SUBSKEYS>
AAADcfB/uAAAAAAAAAAAAAAAAAAAAWAAAAAwYAAAAAAAAAAB0AAAHgAUAAAADSzhngYyjJLQBACpA6XyWgCCAAAmIgAomKG+bNoIZjqAtbOWMYhmlhiI6cc/iICOAAAAAAAAAAAAAAAAAAAAAAAAAAAAAA==

> <PUBCHEM_IUPAC_OPENEYE_NAME>
ethyl (E,4S)-4-[[(2S)-2-[[(2S)-3-methyl-2-[(5-methylisoxazole-3-carbonyl)amino]butanoyl]amino]-3-phenyl-propanoyl]amino]-5-phenyl-pent-2-enoate

> <PUBCHEM_IUPAC_CAS_NAME>
(E,4S)-4-[[(2S)-2-[[(2S)-3-methyl-2-[[(5-methyl-3-isoxazolyl)-oxomethyl]amino]-1-oxobutyl]amino]-1-oxo-3-phenylpropyl]amino]-5-phenyl-2-pentenoic acid ethyl ester

> <PUBCHEM_IUPAC_NAME_MARKUP>
ethyl (<I>E</I>,4<I>S</I>)-4-[[(2<I>S</I>)-2-[[(2<I>S</I>)-3-methyl-2-[(5-methyl-1,2-oxazole-3-carbonyl)amino]butanoyl]amino]-3-phenylpropanoyl]amino]-5-phenylpent-2-enoate

> <PUBCHEM_IUPAC_NAME>
ethyl (E,4S)-4-[[(2S)-2-[[(2S)-3-methyl-2-[(5-methyl-1,2-oxazole-3-carbonyl)amino]butanoyl]amino]-3-phenylpropanoyl]amino]-5-phenylpent-2-enoate

> <PUBCHEM_IUPAC_SYSTEMATIC_NAME>
ethyl (E,4S)-4-[[(2S)-2-[[(2S)-3-methyl-2-[(5-methyl-1,2-oxazol-3-yl)carbonylamino]butanoyl]amino]-3-phenyl-propanoyl]amino]-5-phenyl-pent-2-enoate

> <PUBCHEM_IUPAC_TRADITIONAL_NAME>
(E,4S)-4-[[(2S)-2-[[(2S)-3-methyl-2-[(5-methylisoxazole-3-carbonyl)amino]butanoyl]amino]-3-phenyl-propanoyl]amino]-5-phenyl-pent-2-enoic acid ethyl ester

> <PUBCHEM_IUPAC_INCHI>
InChI=1S/C32H38N4O6/c1-5-41-28(37)17-16-25(19-23-12-8-6-9-13-23)33-30(38)26(20-24-14-10-7-11-15-24)34-32(40)29(21(2)3)35-31(39)27-18-22(4)42-36-27/h6-18,21,25-26,29H,5,19-20H2,1-4H3,(H,33,38)(H,34,40)(H,35,39)/b17-16+/t25-,26+,29+/m1/s1

> <PUBCHEM_IUPAC_INCHIKEY>
DECFOJTYZGEZPC-RWBCRXJQSA-N

> <PUBCHEM_XLOGP3_AA>
4.9

> <PUBCHEM_EXACT_MASS>
574.279135

> <PUBCHEM_MOLECULAR_FORMULA>
C32H38N4O6

> <PUBCHEM_MOLECULAR_WEIGHT>
574.7

> <PUBCHEM_OPENEYE_CAN_SMILES>
CCOC(=O)C=CC(CC1=CC=CC=C1)NC(=O)C(CC2=CC=CC=C2)NC(=O)C(C(C)C)NC(=O)C3=NOC(=C3)C

> <PUBCHEM_OPENEYE_ISO_SMILES>
CCOC(=O)/C=C/[C@H](CC1=CC=CC=C1)NC(=O)[C@H](CC2=CC=CC=C2)NC(=O)[C@H](C(C)C)NC(=O)C3=NOC(=C3)C

> <PUBCHEM_CACTVS_TPSA>
140

> <PUBCHEM_MONOISOTOPIC_WEIGHT>
574.279135

> <PUBCHEM_TOTAL_CHARGE>
0

> <PUBCHEM_HEAVY_ATOM_COUNT>
42

> <PUBCHEM_ATOM_DEF_STEREO_COUNT>
3

> <PUBCHEM_ATOM_UDEF_STEREO_COUNT>
0

> <PUBCHEM_BOND_DEF_STEREO_COUNT>
1

> <PUBCHEM_BOND_UDEF_STEREO_COUNT>
0

> <PUBCHEM_ISOTOPIC_ATOM_COUNT>
0

> <PUBCHEM_COMPONENT_COUNT>
1

> <PUBCHEM_CACTVS_TAUTO_COUNT>
-1

> <PUBCHEM_COORDINATE_TYPE>
1
5
255

> <PUBCHEM_BONDANNOTATIONS>
10  27  8
20  25  8
20  26  8
23  28  8
23  29  8
25  30  8
26  31  8
27  36  8
28  34  8
29  35  8
30  33  8
31  33  8
34  37  8
35  37  8
36  38  8
4  10  8
4  38  8
13  7  6
11  8  5
19  9  6

$$$$
20610262
  -OEChem-02212016592D

 55 57  0     1  0  0  0  0  0999 V2000
    5.9667   -0.0350    0.0000 O   0  0  0  0  0  0  0  0  0  0  0  0
    6.3515   -2.3568    0.0000 O   0  0  0  0  0  0  0  0  0  0  0  0
    4.9417    0.3480    0.0000 O   0  0  0  0  0  0  0  0  0  0  0  0
    4.1100    4.2606    0.0000 O   0  0  0  0  0  0  0  0  0  0  0  0
    3.5748    2.6133    0.0000 O   0  0  0  0  0  0  0  0  0  0  0  0
    8.0835   -2.3568    0.0000 N   0  0  0  0  0  0  0  0  0  0  0  0
    6.4667   -0.9010    0.0000 N   0  0  0  0  0  0  0  0  0  0  0  0
    5.2690    2.9734    0.0000 N   0  0  0  0  0  0  0  0  0  0  0  0
    8.1880   -1.3623    0.0000 C   0  0  3  0  0  0  0  0  0  0  0  0
    9.1662   -1.1544    0.0000 C   0  0  0  0  0  0  0  0  0  0  0  0
    9.6662   -2.0204    0.0000 C   0  0  0  0  0  0  0  0  0  0  0  0
    8.9970   -2.7635    0.0000 C   0  0  0  0  0  0  0  0  0  0  0  0
    7.4449   -0.6931    0.0000 C   0  0  0  0  0  0  0  0  0  0  0  0
    7.2175   -2.8568    0.0000 C   0  0  0  0  0  0  0  0  0  0  0  0
    7.5494    0.3014    0.0000 C   0  0  0  0  0  0  0  0  0  0  0  0
    6.6359    0.7081    0.0000 C   0  0  0  0  0  0  0  0  0  0  0  0
    6.4280    1.6863    0.0000 C   0  0  0  0  0  0  0  0  0  0  0  0
    7.2175   -3.8568    0.0000 C   0  0  0  0  0  0  0  0  0  0  0  0
    5.4769    1.9953    0.0000 C   0  0  3  0  0  0  0  0  0  0  0  0
    6.3515   -4.3568    0.0000 C   0  0  0  0  0  0  0  0  0  0  0  0
    8.0835   -4.3568    0.0000 C   0  0  0  0  0  0  0  0  0  0  0  0
    4.7338    1.3262    0.0000 C   0  0  0  0  0  0  0  0  0  0  0  0
    6.3515   -5.3568    0.0000 C   0  0  0  0  0  0  0  0  0  0  0  0
    8.0835   -5.3568    0.0000 C   0  0  0  0  0  0  0  0  0  0  0  0
    3.7827    1.6352    0.0000 C   0  0  0  0  0  0  0  0  0  0  0  0
    7.2175   -5.8568    0.0000 C   0  0  0  0  0  0  0  0  0  0  0  0
    4.3179    3.2825    0.0000 C   0  0  0  0  0  0  0  0  0  0  0  0
    3.1590    4.5696    0.0000 C   0  0  0  0  0  0  0  0  0  0  0  0
    2.9511    5.5478    0.0000 C   0  0  0  0  0  0  0  0  0  0  0  0
    2.0000    5.8568    0.0000 C   0  0  0  0  0  0  0  0  0  0  0  0
    8.3485   -0.7634    0.0000 H   0  0  0  0  0  0  0  0  0  0  0  0
    9.7326   -0.9022    0.0000 H   0  0  0  0  0  0  0  0  0  0  0  0
    8.9746   -0.5647    0.0000 H   0  0  0  0  0  0  0  0  0  0  0  0
   10.0810   -2.4811    0.0000 H   0  0  0  0  0  0  0  0  0  0  0  0
   10.1678   -1.6560    0.0000 H   0  0  0  0  0  0  0  0  0  0  0  0
    8.6870   -3.3005    0.0000 H   0  0  0  0  0  0  0  0  0  0  0  0
    9.4986   -3.1279    0.0000 H   0  0  0  0  0  0  0  0  0  0  0  0
    8.0864    0.6114    0.0000 H   0  0  0  0  0  0  0  0  0  0  0  0
    7.0476    1.7079    0.0000 H   0  0  0  0  0  0  0  0  0  0  0  0
    6.5142    2.3002    0.0000 H   0  0  0  0  0  0  0  0  0  0  0  0
    4.8872    2.1869    0.0000 H   0  0  0  0  0  0  0  0  0  0  0  0
    5.8145   -4.0468    0.0000 H   0  0  0  0  0  0  0  0  0  0  0  0
    8.6204   -4.0468    0.0000 H   0  0  0  0  0  0  0  0  0  0  0  0
    5.7297    3.3883    0.0000 H   0  0  0  0  0  0  0  0  0  0  0  0
    5.8145   -5.6668    0.0000 H   0  0  0  0  0  0  0  0  0  0  0  0
    8.6204   -5.6668    0.0000 H   0  0  0  0  0  0  0  0  0  0  0  0
    3.9743    2.2248    0.0000 H   0  0  0  0  0  0  0  0  0  0  0  0
    3.1930    1.8268    0.0000 H   0  0  0  0  0  0  0  0  0  0  0  0
    3.5911    1.0455    0.0000 H   0  0  0  0  0  0  0  0  0  0  0  0
    7.2175   -6.4768    0.0000 H   0  0  0  0  0  0  0  0  0  0  0  0
    2.5394    4.5480    0.0000 H   0  0  0  0  0  0  0  0  0  0  0  0
    3.0727    3.9556    0.0000 H   0  0  0  0  0  0  0  0  0  0  0  0
    3.4118    5.9626    0.0000 H   0  0  0  0  0  0  0  0  0  0  0  0
    1.8711    6.4632    0.0000 H   0  0  0  0  0  0  0  0  0  0  0  0
    1.5392    5.4419    0.0000 H   0  0  0  0  0  0  0  0  0  0  0  0
  1  7  1  0  0  0  0
  1 16  1  0  0  0  0
  2 14  2  0  0  0  0
  3 22  2  0  0  0  0
  4 27  1  0  0  0  0
  4 28  1  0  0  0  0
  5 27  2  0  0  0  0
  6  9  1  0  0  0  0
  6 12  1  0  0  0  0
  6 14  1  0  0  0  0
  7 13  2  0  0  0  0
  8 19  1  0  0  0  0
  8 27  1  0  0  0  0
  8 44  1  0  0  0  0
  9 10  1  0  0  0  0
  9 13  1  0  0  0  0
  9 31  1  0  0  0  0
 10 11  1  0  0  0  0
 10 32  1  0  0  0  0
 10 33  1  0  0  0  0
 11 12  1  0  0  0  0
 11 34  1  0  0  0  0
 11 35  1  0  0  0  0
 12 36  1  0  0  0  0
 12 37  1  0  0  0  0
 13 15  1  0  0  0  0
 14 18  1  0  0  0  0
 15 16  2  0  0  0  0
 15 38  1  0  0  0  0
 16 17  1  0  0  0  0
 17 19  1  0  0  0  0
 17 39  1  0  0  0  0
 17 40  1  0  0  0  0
 18 20  2  0  0  0  0
 18 21  1  0  0  0  0
 19 22  1  0  0  0  0
 19 41  1  0  0  0  0
 20 23  1  0  0  0  0
 20 42  1  0  0  0  0
 21 24  2  0  0  0  0
 21 43  1  0  0  0  0
 22 25  1  0  0  0  0
 23 26  2  0  0  0  0
 23 45  1  0  0  0  0
 24 26  1  0  0  0  0
 24 46  1  0  0  0  0
 25 47  1  0  0  0  0
 25 48  1  0  0  0  0
 25 49  1  0  0  0  0
 26 50  1  0  0  0  0
 28 29  1  0  0  0  0
 28 51  1  0  0  0  0
 28 52  1  0  0  0  0
 29 30  2  0  0  0  0
 29 53  1  0  0  0  0
 30 54  1  0  0  0  0
 30 55  1  0  0  0  0
M  END
> <PUBCHEM_COMPOUND_CID>
20610262

> <PUBCHEM_COMPOUND_CANONICALIZED>
1

> <PUBCHEM_CACTVS_COMPLEXITY>
634

> <PUBCHEM_CACTVS_HBOND_ACCEPTOR>
6

> <PUBCHEM_CACTVS_HBOND_DONOR>
1

> <PUBCHEM_CACTVS_ROTATABLE_BOND>
9

> <PUBCHEM_CACTVS_SUBSKEYS>
AAADceB7OAAAAAAAAAAAAAAAAAAAAWLAAAAwAAAAAAAAAAABwAAAHgAUAAAADCzhngYyjJPQBACpA6VyWgCCAAAkIgAomKG+bNsIZjqAtbOcMYhmlhiI6ce/yKCOAAAAAAAAAAAAAAAAAAAAAAAAAAAAAA==

> <PUBCHEM_IUPAC_OPENEYE_NAME>
allyl N-[1-[[3-(1-benzoylpyrrolidin-2-yl)isoxazol-5-yl]methyl]-2-oxo-propyl]carbamate

> <PUBCHEM_IUPAC_CAS_NAME>
N-[1-[3-(1-benzoyl-2-pyrrolidinyl)-5-isoxazolyl]-3-oxobutan-2-yl]carbamic acid prop-2-enyl ester

> <PUBCHEM_IUPAC_NAME_MARKUP>
prop-2-enyl <I>N</I>-[1-[3-(1-benzoylpyrrolidin-2-yl)-1,2-oxazol-5-yl]-3-oxobutan-2-yl]carbamate

> <PUBCHEM_IUPAC_NAME>
prop-2-enyl N-[1-[3-(1-benzoylpyrrolidin-2-yl)-1,2-oxazol-5-yl]-3-oxobutan-2-yl]carbamate

> <PUBCHEM_IUPAC_SYSTEMATIC_NAME>
prop-2-enyl N-[3-oxidanylidene-1-[3-[1-(phenylcarbonyl)pyrrolidin-2-yl]-1,2-oxazol-5-yl]butan-2-yl]carbamate

> <PUBCHEM_IUPAC_TRADITIONAL_NAME>
N-[1-[[3-(1-benzoylpyrrolidin-2-yl)isoxazol-5-yl]methyl]-2-keto-propyl]carbamic acid allyl ester

> <PUBCHEM_IUPAC_INCHI>
InChI=1S/C22H25N3O5/c1-3-12-29-22(28)23-18(15(2)26)13-17-14-19(24-30-17)20-10-7-11-25(20)21(27)16-8-5-4-6-9-16/h3-6,8-9,14,18,20H,1,7,10-13H2,2H3,(H,23,28)

> <PUBCHEM_IUPAC_INCHIKEY>
ITPMXDNBRNGCIV-UHFFFAOYSA-N

> <PUBCHEM_XLOGP3_AA>
2.3

> <PUBCHEM_EXACT_MASS>
411.179421

> <PUBCHEM_MOLECULAR_FORMULA>
C22H25N3O5

> <PUBCHEM_MOLECULAR_WEIGHT>
411.5

> <PUBCHEM_OPENEYE_CAN_SMILES>
CC(=O)C(CC1=CC(=NO1)C2CCCN2C(=O)C3=CC=CC=C3)NC(=O)OCC=C

> <PUBCHEM_OPENEYE_ISO_SMILES>
CC(=O)C(CC1=CC(=NO1)C2CCCN2C(=O)C3=CC=CC=C3)NC(=O)OCC=C

> <PUBCHEM_CACTVS_TPSA>
102

> <PUBCHEM_MONOISOTOPIC_WEIGHT>
411.179421

> <PUBCHEM_TOTAL_CHARGE>
0

> <PUBCHEM_HEAVY_ATOM_COUNT>
30

> <PUBCHEM_ATOM_DEF_STEREO_COUNT>
0

> <PUBCHEM_ATOM_UDEF_STEREO_COUNT>
2

> <PUBCHEM_BOND_DEF_STEREO_COUNT>
0

> <PUBCHEM_BOND_UDEF_STEREO_COUNT>
0

> <PUBCHEM_ISOTOPIC_ATOM_COUNT>
0

> <PUBCHEM_COMPONENT_COUNT>
1

> <PUBCHEM_CACTVS_TAUTO_COUNT>
-1

> <PUBCHEM_COORDINATE_TYPE>
1
5
255

> <PUBCHEM_BONDANNOTATIONS>
1  16  8
1  7  8
13  15  8
15  16  8
19  17  3
18  20  8
18  21  8
20  23  8
21  24  8
23  26  8
24  26  8
7  13  8
9  13  3

$$$$
20835681
  -OEChem-02212016592D

 95 97  0     1  0  0  0  0  0999 V2000
    6.3301   -0.6739    0.0000 O   0  0  0  0  0  0  0  0  0  0  0  0
    8.3176   -3.5588    0.0000 O   0  0  0  0  0  0  0  0  0  0  0  0
    6.3301    0.3261    0.0000 O   0  0  0  0  0  0  0  0  0  0  0  0
    3.7320   -5.1739    0.0000 O   0  0  0  0  0  0  0  0  0  0  0  0
    5.4641    3.8261    0.0000 O   0  0  0  0  0  0  0  0  0  0  0  0
    2.8660   -3.6739    0.0000 O   0  0  0  0  0  0  0  0  0  0  0  0
    8.9282    4.8261    0.0000 O   0  0  0  0  0  0  0  0  0  0  0  0
    8.5622    7.8649    0.0000 O   0  0  0  0  0  0  0  0  0  0  0  0
    8.7788   -1.8375    0.0000 N   0  0  0  0  0  0  0  0  0  0  0  0
    4.5981    0.3261    0.0000 N   0  0  0  0  0  0  0  0  0  0  0  0
    6.3301    2.3261    0.0000 N   0  0  0  0  0  0  0  0  0  0  0  0
    7.1962    4.8261    0.0000 N   0  0  0  0  0  0  0  0  0  0  0  0
    8.8712    6.9139    0.0000 N   0  0  0  0  0  0  0  0  0  0  0  0
    7.1962   -2.1739    0.0000 C   0  0  2  0  0  0  0  0  0  0  0  0
    6.3301   -2.6739    0.0000 C   0  0  0  0  0  0  0  0  0  0  0  0
    5.4641   -2.1739    0.0000 C   0  0  2  0  0  0  0  0  0  0  0  0
    7.3007   -1.1794    0.0000 C   0  0  0  0  0  0  0  0  0  0  0  0
    4.5981   -0.6739    0.0000 C   0  0  2  0  0  0  0  0  0  0  0  0
    8.2788   -0.9715    0.0000 C   0  0  0  0  0  0  0  0  0  0  0  0
    5.4641   -1.1739    0.0000 C   0  0  0  0  0  0  0  0  0  0  0  0
    8.1097   -2.5807    0.0000 C   0  0  0  0  0  0  0  0  0  0  0  0
    3.7320   -1.1739    0.0000 C   0  0  0  0  0  0  0  0  0  0  0  0
    2.8660   -0.6739    0.0000 C   0  0  0  0  0  0  0  0  0  0  0  0
    4.5981   -2.6739    0.0000 C   0  0  0  0  0  0  0  0  0  0  0  0
    5.4641    1.8261    0.0000 C   0  0  2  0  0  0  0  0  0  0  0  0
    5.4641    0.8261    0.0000 C   0  0  0  0  0  0  0  0  0  0  0  0
    4.5981    2.3261    0.0000 C   0  0  0  0  0  0  0  0  0  0  0  0
    2.0000   -1.1739    0.0000 C   0  0  0  0  0  0  0  0  0  0  0  0
    2.8660    0.3261    0.0000 C   0  0  0  0  0  0  0  0  0  0  0  0
    4.5981   -3.6739    0.0000 C   0  0  0  0  0  0  0  0  0  0  0  0
    4.5981    3.3261    0.0000 C   0  0  0  0  0  0  0  0  0  0  0  0
    3.7320    1.8261    0.0000 C   0  0  0  0  0  0  0  0  0  0  0  0
    6.3301    3.3261    0.0000 C   0  0  0  0  0  0  0  0  0  0  0  0
    3.7320   -4.1739    0.0000 C   0  0  0  0  0  0  0  0  0  0  0  0
    7.1962    3.8261    0.0000 C   0  0  2  0  0  0  0  0  0  0  0  0
    8.0622    3.3261    0.0000 C   0  0  0  0  0  0  0  0  0  0  0  0
    2.8660   -5.6739    0.0000 C   0  0  0  0  0  0  0  0  0  0  0  0
    8.0622    5.3261    0.0000 C   0  0  0  0  0  0  0  0  0  0  0  0
    2.8660   -6.6739    0.0000 C   0  0  0  0  0  0  0  0  0  0  0  0
    8.0622    6.3261    0.0000 C   0  0  0  0  0  0  0  0  0  0  0  0
    2.0000   -7.1739    0.0000 C   0  0  0  0  0  0  0  0  0  0  0  0
    3.7320   -7.1739    0.0000 C   0  0  0  0  0  0  0  0  0  0  0  0
    7.2532    6.9139    0.0000 C   0  0  0  0  0  0  0  0  0  0  0  0
    7.5622    7.8649    0.0000 C   0  0  0  0  0  0  0  0  0  0  0  0
    2.0000   -8.1739    0.0000 C   0  0  0  0  0  0  0  0  0  0  0  0
    3.7320   -8.1739    0.0000 C   0  0  0  0  0  0  0  0  0  0  0  0
    2.8660   -8.6739    0.0000 C   0  0  0  0  0  0  0  0  0  0  0  0
    6.9744    8.6739    0.0000 C   0  0  0  0  0  0  0  0  0  0  0  0
    6.6762   -1.8362    0.0000 H   0  0  0  0  0  0  0  0  0  0  0  0
    5.9316   -3.1489    0.0000 H   0  0  0  0  0  0  0  0  0  0  0  0
    6.7287   -3.1489    0.0000 H   0  0  0  0  0  0  0  0  0  0  0  0
    5.4641   -2.7939    0.0000 H   0  0  0  0  0  0  0  0  0  0  0  0
    7.2359   -0.5628    0.0000 H   0  0  0  0  0  0  0  0  0  0  0  0
    6.6807   -1.1794    0.0000 H   0  0  0  0  0  0  0  0  0  0  0  0
    5.1350   -0.3639    0.0000 H   0  0  0  0  0  0  0  0  0  0  0  0
    8.8452   -0.7193    0.0000 H   0  0  0  0  0  0  0  0  0  0  0  0
    8.0872   -0.3818    0.0000 H   0  0  0  0  0  0  0  0  0  0  0  0
    3.3335   -1.6489    0.0000 H   0  0  0  0  0  0  0  0  0  0  0  0
    4.1306   -1.6489    0.0000 H   0  0  0  0  0  0  0  0  0  0  0  0
    9.3954   -1.9023    0.0000 H   0  0  0  0  0  0  0  0  0  0  0  0
    2.8660   -1.2939    0.0000 H   0  0  0  0  0  0  0  0  0  0  0  0
    4.0611   -2.3639    0.0000 H   0  0  0  0  0  0  0  0  0  0  0  0
    4.0611    0.6361    0.0000 H   0  0  0  0  0  0  0  0  0  0  0  0
    5.4641    2.4461    0.0000 H   0  0  0  0  0  0  0  0  0  0  0  0
    4.5981    1.7061    0.0000 H   0  0  0  0  0  0  0  0  0  0  0  0
    1.6900   -0.6370    0.0000 H   0  0  0  0  0  0  0  0  0  0  0  0
    1.4631   -1.4839    0.0000 H   0  0  0  0  0  0  0  0  0  0  0  0
    2.3100   -1.7109    0.0000 H   0  0  0  0  0  0  0  0  0  0  0  0
    3.4860    0.3261    0.0000 H   0  0  0  0  0  0  0  0  0  0  0  0
    2.8660    0.9461    0.0000 H   0  0  0  0  0  0  0  0  0  0  0  0
    2.2460    0.3261    0.0000 H   0  0  0  0  0  0  0  0  0  0  0  0
    5.1350   -3.9839    0.0000 H   0  0  0  0  0  0  0  0  0  0  0  0
    6.8671    2.0161    0.0000 H   0  0  0  0  0  0  0  0  0  0  0  0
    5.2181    3.3261    0.0000 H   0  0  0  0  0  0  0  0  0  0  0  0
    4.5981    3.9461    0.0000 H   0  0  0  0  0  0  0  0  0  0  0  0
    3.9781    3.3261    0.0000 H   0  0  0  0  0  0  0  0  0  0  0  0
    3.4220    2.3630    0.0000 H   0  0  0  0  0  0  0  0  0  0  0  0
    3.1951    1.5161    0.0000 H   0  0  0  0  0  0  0  0  0  0  0  0
    4.0420    1.2891    0.0000 H   0  0  0  0  0  0  0  0  0  0  0  0
    6.6592    4.1361    0.0000 H   0  0  0  0  0  0  0  0  0  0  0  0
    7.7522    2.7891    0.0000 H   0  0  0  0  0  0  0  0  0  0  0  0
    8.5991    3.0161    0.0000 H   0  0  0  0  0  0  0  0  0  0  0  0
    8.3722    3.8630    0.0000 H   0  0  0  0  0  0  0  0  0  0  0  0
    6.6592    5.1361    0.0000 H   0  0  0  0  0  0  0  0  0  0  0  0
    2.6540   -5.0913    0.0000 H   0  0  0  0  0  0  0  0  0  0  0  0
    2.2554   -5.7816    0.0000 H   0  0  0  0  0  0  0  0  0  0  0  0
    1.4631   -6.8639    0.0000 H   0  0  0  0  0  0  0  0  0  0  0  0
    4.2690   -6.8639    0.0000 H   0  0  0  0  0  0  0  0  0  0  0  0
    6.6635    6.7223    0.0000 H   0  0  0  0  0  0  0  0  0  0  0  0
    1.4631   -8.4839    0.0000 H   0  0  0  0  0  0  0  0  0  0  0  0
    4.2690   -8.4839    0.0000 H   0  0  0  0  0  0  0  0  0  0  0  0
    2.8660   -9.2939    0.0000 H   0  0  0  0  0  0  0  0  0  0  0  0
    7.4760    9.0384    0.0000 H   0  0  0  0  0  0  0  0  0  0  0  0
    6.6100    9.1755    0.0000 H   0  0  0  0  0  0  0  0  0  0  0  0
    6.4728    8.3095    0.0000 H   0  0  0  0  0  0  0  0  0  0  0  0
  1 20  2  0  0  0  0
  2 21  2  0  0  0  0
  3 26  2  0  0  0  0
  4 34  1  0  0  0  0
  4 37  1  0  0  0  0
  5 33  2  0  0  0  0
  6 34  2  0  0  0  0
  7 38  2  0  0  0  0
  8 13  1  0  0  0  0
  8 44  1  0  0  0  0
  9 19  1  0  0  0  0
  9 21  1  0  0  0  0
  9 60  1  0  0  0  0
 18 10  1  6  0  0  0
 10 26  1  0  0  0  0
 10 63  1  0  0  0  0
 25 11  1  6  0  0  0
 11 33  1  0  0  0  0
 11 73  1  0  0  0  0
 35 12  1  1  0  0  0
 12 38  1  0  0  0  0
 12 84  1  0  0  0  0
 13 40  2  0  0  0  0
 14 15  1  6  0  0  0
 14 17  1  0  0  0  0
 14 21  1  0  0  0  0
 14 49  1  0  0  0  0
 16 15  1  1  0  0  0
 15 50  1  0  0  0  0
 15 51  1  0  0  0  0
 16 20  1  0  0  0  0
 16 24  1  0  0  0  0
 16 52  1  0  0  0  0
 17 19  1  0  0  0  0
 17 53  1  0  0  0  0
 17 54  1  0  0  0  0
 18 20  1  0  0  0  0
 18 22  1  0  0  0  0
 18 55  1  0  0  0  0
 19 56  1  0  0  0  0
 19 57  1  0  0  0  0
 22 23  1  0  0  0  0
 22 58  1  0  0  0  0
 22 59  1  0  0  0  0
 23 28  1  0  0  0  0
 23 29  1  0  0  0  0
 23 61  1  0  0  0  0
 24 30  2  0  0  0  0
 24 62  1  0  0  0  0
 25 26  1  0  0  0  0
 25 27  1  0  0  0  0
 25 64  1  0  0  0  0
 27 31  1  0  0  0  0
 27 32  1  0  0  0  0
 27 65  1  0  0  0  0
 28 66  1  0  0  0  0
 28 67  1  0  0  0  0
 28 68  1  0  0  0  0
 29 69  1  0  0  0  0
 29 70  1  0  0  0  0
 29 71  1  0  0  0  0
 30 34  1  0  0  0  0
 30 72  1  0  0  0  0
 31 74  1  0  0  0  0
 31 75  1  0  0  0  0
 31 76  1  0  0  0  0
 32 77  1  0  0  0  0
 32 78  1  0  0  0  0
 32 79  1  0  0  0  0
 33 35  1  0  0  0  0
 35 36  1  0  0  0  0
 35 80  1  0  0  0  0
 36 81  1  0  0  0  0
 36 82  1  0  0  0  0
 36 83  1  0  0  0  0
 37 39  1  0  0  0  0
 37 85  1  0  0  0  0
 37 86  1  0  0  0  0
 38 40  1  0  0  0  0
 39 41  2  0  0  0  0
 39 42  1  0  0  0  0
 40 43  1  0  0  0  0
 41 45  1  0  0  0  0
 41 87  1  0  0  0  0
 42 46  2  0  0  0  0
 42 88  1  0  0  0  0
 43 44  2  0  0  0  0
 43 89  1  0  0  0  0
 44 48  1  0  0  0  0
 45 47  2  0  0  0  0
 45 90  1  0  0  0  0
 46 47  1  0  0  0  0
 46 91  1  0  0  0  0
 47 92  1  0  0  0  0
 48 93  1  0  0  0  0
 48 94  1  0  0  0  0
 48 95  1  0  0  0  0
M  END
> <PUBCHEM_COMPOUND_CID>
20835681

> <PUBCHEM_COMPOUND_CANONICALIZED>
1

> <PUBCHEM_CACTVS_COMPLEXITY>
1170

> <PUBCHEM_CACTVS_HBOND_ACCEPTOR>
9

> <PUBCHEM_CACTVS_HBOND_DONOR>
4

> <PUBCHEM_CACTVS_ROTATABLE_BOND>
18

> <PUBCHEM_CACTVS_SUBSKEYS>
AAADcfB/vAAAAAAAAAAAAAAAAAAAAWLAAAAwAAAAAAAAAAABwAAAHgAUAAAADSzhngYyjJLQBACpA6XyWgCCAAAmIgAomKG+bNoIZjqAtbuWMYhm1hmI6ce/y+CuAAAAAAAAAAAAAAAAAAAAAAAAAAAAAA==

> <PUBCHEM_IUPAC_OPENEYE_NAME>
benzyl (E,4S,6S)-8-methyl-6-[[(2S)-3-methyl-2-[[(2S)-2-[(5-methylisoxazole-3-carbonyl)amino]propanoyl]amino]butanoyl]amino]-5-oxo-4-[[(3R)-2-oxopyrrolidin-3-yl]methyl]non-2-enoate

> <PUBCHEM_IUPAC_CAS_NAME>
(E,4S,6S)-8-methyl-6-[[(2S)-3-methyl-2-[[(2S)-2-[[(5-methyl-3-isoxazolyl)-oxomethyl]amino]-1-oxopropyl]amino]-1-oxobutyl]amino]-5-oxo-4-[[(3R)-2-oxo-3-pyrrolidinyl]methyl]-2-nonenoic acid (phenylmethyl) ester

> <PUBCHEM_IUPAC_NAME_MARKUP>
benzyl (<I>E</I>,4<I>S</I>,6<I>S</I>)-8-methyl-6-[[(2<I>S</I>)-3-methyl-2-[[(2<I>S</I>)-2-[(5-methyl-1,2-oxazole-3-carbonyl)amino]propanoyl]amino]butanoyl]amino]-5-oxo-4-[[(3<I>R</I>)-2-oxopyrrolidin-3-yl]methyl]non-2-enoate

> <PUBCHEM_IUPAC_NAME>
benzyl (E,4S,6S)-8-methyl-6-[[(2S)-3-methyl-2-[[(2S)-2-[(5-methyl-1,2-oxazole-3-carbonyl)amino]propanoyl]amino]butanoyl]amino]-5-oxo-4-[[(3R)-2-oxopyrrolidin-3-yl]methyl]non-2-enoate

> <PUBCHEM_IUPAC_SYSTEMATIC_NAME>
(phenylmethyl) (E,4S,6S)-8-methyl-6-[[(2S)-3-methyl-2-[[(2S)-2-[(5-methyl-1,2-oxazol-3-yl)carbonylamino]propanoyl]amino]butanoyl]amino]-5-oxidanylidene-4-[[(3R)-2-oxidanylidenepyrrolidin-3-yl]methyl]non-2-enoate

> <PUBCHEM_IUPAC_TRADITIONAL_NAME>
(E,4S,6S)-5-keto-4-[[(3R)-2-ketopyrrolidin-3-yl]methyl]-8-methyl-6-[[(2S)-3-methyl-2-[[(2S)-2-[(5-methylisoxazole-3-carbonyl)amino]propanoyl]amino]butanoyl]amino]non-2-enoic acid benzyl ester

> <PUBCHEM_IUPAC_INCHI>
InChI=1S/C35H47N5O8/c1-20(2)16-27(38-35(46)30(21(3)4)39-32(43)23(6)37-34(45)28-17-22(5)48-40-28)31(42)25(18-26-14-15-36-33(26)44)12-13-29(41)47-19-24-10-8-7-9-11-24/h7-13,17,20-21,23,25-27,30H,14-16,18-19H2,1-6H3,(H,36,44)(H,37,45)(H,38,46)(H,39,43)/b13-12+/t23-,25+,26-,27-,30-/m0/s1

> <PUBCHEM_IUPAC_INCHIKEY>
GRDAMRKOASHNES-GJTDAQPWSA-N

> <PUBCHEM_XLOGP3_AA>
3.9

> <PUBCHEM_EXACT_MASS>
665.342463

> <PUBCHEM_MOLECULAR_FORMULA>
C35H47N5O8

> <PUBCHEM_MOLECULAR_WEIGHT>
665.8

> <PUBCHEM_OPENEYE_CAN_SMILES>
CC1=CC(=NO1)C(=O)NC(C)C(=O)NC(C(C)C)C(=O)NC(CC(C)C)C(=O)C(CC2CCNC2=O)C=CC(=O)OCC3=CC=CC=C3

> <PUBCHEM_OPENEYE_ISO_SMILES>
CC1=CC(=NO1)C(=O)N[C@@H](C)C(=O)N[C@@H](C(C)C)C(=O)N[C@@H](CC(C)C)C(=O)[C@@H](C[C@@H]2CCNC2=O)/C=C/C(=O)OCC3=CC=CC=C3

> <PUBCHEM_CACTVS_TPSA>
186

> <PUBCHEM_MONOISOTOPIC_WEIGHT>
665.342463

> <PUBCHEM_TOTAL_CHARGE>
0

> <PUBCHEM_HEAVY_ATOM_COUNT>
48

> <PUBCHEM_ATOM_DEF_STEREO_COUNT>
5

> <PUBCHEM_ATOM_UDEF_STEREO_COUNT>
0

> <PUBCHEM_BOND_DEF_STEREO_COUNT>
1

> <PUBCHEM_BOND_UDEF_STEREO_COUNT>
0

> <PUBCHEM_ISOTOPIC_ATOM_COUNT>
0

> <PUBCHEM_COMPONENT_COUNT>
1

> <PUBCHEM_CACTVS_TAUTO_COUNT>
-1

> <PUBCHEM_COORDINATE_TYPE>
1
5
255

> <PUBCHEM_BONDANNOTATIONS>
18  10  6
25  11  6
35  12  5
13  40  8
14  15  6
16  15  5
39  41  8
39  42  8
40  43  8
41  45  8
42  46  8
43  44  8
45  47  8
46  47  8
8  13  8
8  44  8

$$$$
20835682
  -OEChem-02212016592D

 97 99  0     1  0  0  0  0  0999 V2000
    3.0778   -0.6929    0.0000 O   0  0  0  0  0  0  0  0  0  0  0  0
    7.6634    1.6920    0.0000 O   0  0  0  0  0  0  0  0  0  0  0  0
    8.5294    2.1920    0.0000 O   0  0  0  0  0  0  0  0  0  0  0  0
    5.9313   -2.3080    0.0000 O   0  0  0  0  0  0  0  0  0  0  0  0
   11.1275    4.6920    0.0000 O   0  0  0  0  0  0  0  0  0  0  0  0
    5.0653   -0.8080    0.0000 O   0  0  0  0  0  0  0  0  0  0  0  0
   13.7256    2.1920    0.0000 O   0  0  0  0  0  0  0  0  0  0  0  0
   16.1743    4.0284    0.0000 O   0  0  0  0  0  0  0  0  0  0  0  0
    2.6166    1.0284    0.0000 N   0  0  0  0  0  0  0  0  0  0  0  0
    5.9313    1.6920    0.0000 N   0  0  0  0  0  0  0  0  0  0  0  0
    7.6634    3.6920    0.0000 N   0  0  0  0  0  0  0  0  0  0  0  0
   10.2615    3.1920    0.0000 N   0  0  0  0  0  0  0  0  0  0  0  0
   12.8595    3.6920    0.0000 N   0  0  0  0  0  0  0  0  0  0  0  0
   15.5051    3.2853    0.0000 N   0  0  0  0  0  0  0  0  0  0  0  0
    4.1993    0.6920    0.0000 C   0  0  1  0  0  0  0  0  0  0  0  0
    5.0653    0.1920    0.0000 C   0  0  0  0  0  0  0  0  0  0  0  0
    4.0948    1.6865    0.0000 C   0  0  0  0  0  0  0  0  0  0  0  0
    5.9313    0.6920    0.0000 C   0  0  2  0  0  0  0  0  0  0  0  0
    3.1166    1.8944    0.0000 C   0  0  0  0  0  0  0  0  0  0  0  0
    3.2857    0.2853    0.0000 C   0  0  0  0  0  0  0  0  0  0  0  0
    6.7974    3.1920    0.0000 C   0  0  1  0  0  0  0  0  0  0  0  0
    5.9313    3.6920    0.0000 C   0  0  0  0  0  0  0  0  0  0  0  0
    6.7974    2.1920    0.0000 C   0  0  0  0  0  0  0  0  0  0  0  0
    5.9313    4.6920    0.0000 C   0  0  0  0  0  0  0  0  0  0  0  0
    6.7974    0.1920    0.0000 C   0  0  0  0  0  0  0  0  0  0  0  0
    9.3954    3.6920    0.0000 C   0  0  1  0  0  0  0  0  0  0  0  0
    9.3954    4.6920    0.0000 C   0  0  0  0  0  0  0  0  0  0  0  0
    8.5294    3.1920    0.0000 C   0  0  0  0  0  0  0  0  0  0  0  0
    5.0653    5.1920    0.0000 C   0  0  0  0  0  0  0  0  0  0  0  0
    6.7974    5.1920    0.0000 C   0  0  0  0  0  0  0  0  0  0  0  0
    6.7974   -0.8080    0.0000 C   0  0  0  0  0  0  0  0  0  0  0  0
   10.2615    5.1920    0.0000 C   0  0  0  0  0  0  0  0  0  0  0  0
    8.5294    5.1920    0.0000 C   0  0  0  0  0  0  0  0  0  0  0  0
   11.1275    3.6920    0.0000 C   0  0  0  0  0  0  0  0  0  0  0  0
   11.9935    3.1920    0.0000 C   0  0  3  0  0  0  0  0  0  0  0  0
    5.9313   -1.3080    0.0000 C   0  0  0  0  0  0  0  0  0  0  0  0
   11.9935    2.1920    0.0000 C   0  0  0  0  0  0  0  0  0  0  0  0
   13.7256    3.1920    0.0000 C   0  0  0  0  0  0  0  0  0  0  0  0
    5.0653   -2.8080    0.0000 C   0  0  0  0  0  0  0  0  0  0  0  0
   14.5916    3.6920    0.0000 C   0  0  0  0  0  0  0  0  0  0  0  0
    5.0653   -3.8080    0.0000 C   0  0  0  0  0  0  0  0  0  0  0  0
   14.6961    4.6865    0.0000 C   0  0  0  0  0  0  0  0  0  0  0  0
    4.1993   -4.3080    0.0000 C   0  0  0  0  0  0  0  0  0  0  0  0
    5.9313   -4.3080    0.0000 C   0  0  0  0  0  0  0  0  0  0  0  0
   15.6743    4.8944    0.0000 C   0  0  0  0  0  0  0  0  0  0  0  0
    4.1993   -5.3080    0.0000 C   0  0  0  0  0  0  0  0  0  0  0  0
    5.9313   -5.3080    0.0000 C   0  0  0  0  0  0  0  0  0  0  0  0
    5.0653   -5.8080    0.0000 C   0  0  0  0  0  0  0  0  0  0  0  0
   16.0810    5.8080    0.0000 C   0  0  0  0  0  0  0  0  0  0  0  0
    4.1668    0.0729    0.0000 H   0  0  0  0  0  0  0  0  0  0  0  0
    4.6668   -0.2829    0.0000 H   0  0  0  0  0  0  0  0  0  0  0  0
    5.4638   -0.2829    0.0000 H   0  0  0  0  0  0  0  0  0  0  0  0
    4.7148    1.6865    0.0000 H   0  0  0  0  0  0  0  0  0  0  0  0
    4.1596    2.3031    0.0000 H   0  0  0  0  0  0  0  0  0  0  0  0
    6.4683    1.0020    0.0000 H   0  0  0  0  0  0  0  0  0  0  0  0
    3.3082    2.4841    0.0000 H   0  0  0  0  0  0  0  0  0  0  0  0
    2.5502    2.1466    0.0000 H   0  0  0  0  0  0  0  0  0  0  0  0
    2.0000    0.9636    0.0000 H   0  0  0  0  0  0  0  0  0  0  0  0
    7.3343    2.8820    0.0000 H   0  0  0  0  0  0  0  0  0  0  0  0
    5.3208    3.7997    0.0000 H   0  0  0  0  0  0  0  0  0  0  0  0
    5.7193    3.1094    0.0000 H   0  0  0  0  0  0  0  0  0  0  0  0
    5.3944    2.0020    0.0000 H   0  0  0  0  0  0  0  0  0  0  0  0
    6.4683    4.3820    0.0000 H   0  0  0  0  0  0  0  0  0  0  0  0
    7.3343    0.5020    0.0000 H   0  0  0  0  0  0  0  0  0  0  0  0
    9.3954    3.0720    0.0000 H   0  0  0  0  0  0  0  0  0  0  0  0
    7.6634    4.3120    0.0000 H   0  0  0  0  0  0  0  0  0  0  0  0
    9.9324    4.3820    0.0000 H   0  0  0  0  0  0  0  0  0  0  0  0
    5.3753    5.7290    0.0000 H   0  0  0  0  0  0  0  0  0  0  0  0
    4.5284    5.5020    0.0000 H   0  0  0  0  0  0  0  0  0  0  0  0
    4.7553    4.6551    0.0000 H   0  0  0  0  0  0  0  0  0  0  0  0
    7.1074    4.6551    0.0000 H   0  0  0  0  0  0  0  0  0  0  0  0
    7.3343    5.5020    0.0000 H   0  0  0  0  0  0  0  0  0  0  0  0
    6.4874    5.7290    0.0000 H   0  0  0  0  0  0  0  0  0  0  0  0
   10.2615    2.5720    0.0000 H   0  0  0  0  0  0  0  0  0  0  0  0
    7.3343   -1.1180    0.0000 H   0  0  0  0  0  0  0  0  0  0  0  0
   10.5715    4.6551    0.0000 H   0  0  0  0  0  0  0  0  0  0  0  0
   10.7984    5.5020    0.0000 H   0  0  0  0  0  0  0  0  0  0  0  0
    9.9515    5.7290    0.0000 H   0  0  0  0  0  0  0  0  0  0  0  0
    8.8394    5.7290    0.0000 H   0  0  0  0  0  0  0  0  0  0  0  0
    7.9925    5.5020    0.0000 H   0  0  0  0  0  0  0  0  0  0  0  0
    8.2194    4.6551    0.0000 H   0  0  0  0  0  0  0  0  0  0  0  0
   12.5304    2.8820    0.0000 H   0  0  0  0  0  0  0  0  0  0  0  0
   11.3735    2.1920    0.0000 H   0  0  0  0  0  0  0  0  0  0  0  0
   11.9935    1.5720    0.0000 H   0  0  0  0  0  0  0  0  0  0  0  0
   12.6135    2.1920    0.0000 H   0  0  0  0  0  0  0  0  0  0  0  0
   12.8595    4.3120    0.0000 H   0  0  0  0  0  0  0  0  0  0  0  0
    4.8532   -2.2254    0.0000 H   0  0  0  0  0  0  0  0  0  0  0  0
    4.4547   -2.9156    0.0000 H   0  0  0  0  0  0  0  0  0  0  0  0
   14.2354    5.1014    0.0000 H   0  0  0  0  0  0  0  0  0  0  0  0
    3.6623   -3.9980    0.0000 H   0  0  0  0  0  0  0  0  0  0  0  0
    6.4683   -3.9980    0.0000 H   0  0  0  0  0  0  0  0  0  0  0  0
    3.6623   -5.6180    0.0000 H   0  0  0  0  0  0  0  0  0  0  0  0
    6.4683   -5.6180    0.0000 H   0  0  0  0  0  0  0  0  0  0  0  0
    5.0653   -6.4280    0.0000 H   0  0  0  0  0  0  0  0  0  0  0  0
   16.6474    5.5558    0.0000 H   0  0  0  0  0  0  0  0  0  0  0  0
   16.3332    6.3744    0.0000 H   0  0  0  0  0  0  0  0  0  0  0  0
   15.5146    6.0602    0.0000 H   0  0  0  0  0  0  0  0  0  0  0  0
  1 20  2  0  0  0  0
  2 23  2  0  0  0  0
  3 28  2  0  0  0  0
  4 36  1  0  0  0  0
  4 39  1  0  0  0  0
  5 34  2  0  0  0  0
  6 36  2  0  0  0  0
  7 38  2  0  0  0  0
  8 14  1  0  0  0  0
  8 45  1  0  0  0  0
  9 19  1  0  0  0  0
  9 20  1  0  0  0  0
  9 58  1  0  0  0  0
 18 10  1  1  0  0  0
 10 23  1  0  0  0  0
 10 62  1  0  0  0  0
 21 11  1  6  0  0  0
 11 28  1  0  0  0  0
 11 66  1  0  0  0  0
 26 12  1  6  0  0  0
 12 34  1  0  0  0  0
 12 74  1  0  0  0  0
 13 35  1  0  0  0  0
 13 38  1  0  0  0  0
 13 86  1  0  0  0  0
 14 40  2  0  0  0  0
 15 16  1  6  0  0  0
 15 17  1  0  0  0  0
 15 20  1  0  0  0  0
 15 50  1  0  0  0  0
 16 18  1  0  0  0  0
 16 51  1  0  0  0  0
 16 52  1  0  0  0  0
 17 19  1  0  0  0  0
 17 53  1  0  0  0  0
 17 54  1  0  0  0  0
 18 25  1  0  0  0  0
 18 55  1  0  0  0  0
 19 56  1  0  0  0  0
 19 57  1  0  0  0  0
 21 22  1  0  0  0  0
 21 23  1  0  0  0  0
 21 59  1  0  0  0  0
 22 24  1  0  0  0  0
 22 60  1  0  0  0  0
 22 61  1  0  0  0  0
 24 29  1  0  0  0  0
 24 30  1  0  0  0  0
 24 63  1  0  0  0  0
 25 31  2  0  0  0  0
 25 64  1  0  0  0  0
 26 27  1  0  0  0  0
 26 28  1  0  0  0  0
 26 65  1  0  0  0  0
 27 32  1  0  0  0  0
 27 33  1  0  0  0  0
 27 67  1  0  0  0  0
 29 68  1  0  0  0  0
 29 69  1  0  0  0  0
 29 70  1  0  0  0  0
 30 71  1  0  0  0  0
 30 72  1  0  0  0  0
 30 73  1  0  0  0  0
 31 36  1  0  0  0  0
 31 75  1  0  0  0  0
 32 76  1  0  0  0  0
 32 77  1  0  0  0  0
 32 78  1  0  0  0  0
 33 79  1  0  0  0  0
 33 80  1  0  0  0  0
 33 81  1  0  0  0  0
 34 35  1  0  0  0  0
 35 37  1  0  0  0  0
 35 82  1  0  0  0  0
 37 83  1  0  0  0  0
 37 84  1  0  0  0  0
 37 85  1  0  0  0  0
 38 40  1  0  0  0  0
 39 41  1  0  0  0  0
 39 87  1  0  0  0  0
 39 88  1  0  0  0  0
 40 42  1  0  0  0  0
 41 43  2  0  0  0  0
 41 44  1  0  0  0  0
 42 45  2  0  0  0  0
 42 89  1  0  0  0  0
 43 46  1  0  0  0  0
 43 90  1  0  0  0  0
 44 47  2  0  0  0  0
 44 91  1  0  0  0  0
 45 49  1  0  0  0  0
 46 48  2  0  0  0  0
 46 92  1  0  0  0  0
 47 48  1  0  0  0  0
 47 93  1  0  0  0  0
 48 94  1  0  0  0  0
 49 95  1  0  0  0  0
 49 96  1  0  0  0  0
 49 97  1  0  0  0  0
M  END
> <PUBCHEM_COMPOUND_CID>
20835682

> <PUBCHEM_COMPOUND_CANONICALIZED>
1

> <PUBCHEM_CACTVS_COMPLEXITY>
1190

> <PUBCHEM_CACTVS_HBOND_ACCEPTOR>
9

> <PUBCHEM_CACTVS_HBOND_DONOR>
5

> <PUBCHEM_CACTVS_ROTATABLE_BOND>
18

> <PUBCHEM_CACTVS_SUBSKEYS>
AAADcfB/vAAAAAAAAAAAAAAAAAAAAWLAAAAwAAAAAAAAAAABwAAAHgAUAAAADSzhngYyjJLQBACpA6XyWgCCAAAmIgAomKG+bNoIZjqAtbuWMYhm1hmI6ce/wCAOAAAAAAAAAAAAAAAAAAAAAAAAAAAAAA==

> <PUBCHEM_IUPAC_OPENEYE_NAME>
benzyl (Z,4R)-4-[[(2S)-4-methyl-2-[[(2S)-3-methyl-2-[2-[(5-methylisoxazole-3-carbonyl)amino]propanoylamino]butanoyl]amino]pentanoyl]amino]-5-[(3R)-2-oxopyrrolidin-3-yl]pent-2-enoate

> <PUBCHEM_IUPAC_CAS_NAME>
(Z,4R)-4-[[(2S)-4-methyl-2-[[(2S)-3-methyl-2-[[2-[[(5-methyl-3-isoxazolyl)-oxomethyl]amino]-1-oxopropyl]amino]-1-oxobutyl]amino]-1-oxopentyl]amino]-5-[(3R)-2-oxo-3-pyrrolidinyl]-2-pentenoic acid (phenylmethyl) ester

> <PUBCHEM_IUPAC_NAME_MARKUP>
benzyl (<I>Z</I>,4<I>R</I>)-4-[[(2<I>S</I>)-4-methyl-2-[[(2<I>S</I>)-3-methyl-2-[2-[(5-methyl-1,2-oxazole-3-carbonyl)amino]propanoylamino]butanoyl]amino]pentanoyl]amino]-5-[(3<I>R</I>)-2-oxopyrrolidin-3-yl]pent-2-enoate

> <PUBCHEM_IUPAC_NAME>
benzyl (Z,4R)-4-[[(2S)-4-methyl-2-[[(2S)-3-methyl-2-[2-[(5-methyl-1,2-oxazole-3-carbonyl)amino]propanoylamino]butanoyl]amino]pentanoyl]amino]-5-[(3R)-2-oxopyrrolidin-3-yl]pent-2-enoate

> <PUBCHEM_IUPAC_SYSTEMATIC_NAME>
(phenylmethyl) (Z,4R)-4-[[(2S)-4-methyl-2-[[(2S)-3-methyl-2-[2-[(5-methyl-1,2-oxazol-3-yl)carbonylamino]propanoylamino]butanoyl]amino]pentanoyl]amino]-5-[(3R)-2-oxidanylidenepyrrolidin-3-yl]pent-2-enoate

> <PUBCHEM_IUPAC_TRADITIONAL_NAME>
(Z,4R)-5-[(3R)-2-ketopyrrolidin-3-yl]-4-[[(2S)-4-methyl-2-[[(2S)-3-methyl-2-[2-[(5-methylisoxazole-3-carbonyl)amino]propanoylamino]butanoyl]amino]pentanoyl]amino]pent-2-enoic acid benzyl ester

> <PUBCHEM_IUPAC_INCHI>
InChI=1S/C35H48N6O8/c1-20(2)16-27(39-35(47)30(21(3)4)40-31(43)23(6)37-34(46)28-17-22(5)49-41-28)33(45)38-26(18-25-14-15-36-32(25)44)12-13-29(42)48-19-24-10-8-7-9-11-24/h7-13,17,20-21,23,25-27,30H,14-16,18-19H2,1-6H3,(H,36,44)(H,37,46)(H,38,45)(H,39,47)(H,40,43)/b13-12-/t23?,25-,26+,27+,30+/m1/s1

> <PUBCHEM_IUPAC_INCHIKEY>
IDBWWEGDLCFCTD-CQQFGMHPSA-N

> <PUBCHEM_XLOGP3_AA>
3.4

> <PUBCHEM_EXACT_MASS>
680.353363

> <PUBCHEM_MOLECULAR_FORMULA>
C35H48N6O8

> <PUBCHEM_MOLECULAR_WEIGHT>
680.8

> <PUBCHEM_OPENEYE_CAN_SMILES>
CC1=CC(=NO1)C(=O)NC(C)C(=O)NC(C(C)C)C(=O)NC(CC(C)C)C(=O)NC(CC2CCNC2=O)C=CC(=O)OCC3=CC=CC=C3

> <PUBCHEM_OPENEYE_ISO_SMILES>
CC1=CC(=NO1)C(=O)NC(C)C(=O)N[C@@H](C(C)C)C(=O)N[C@@H](CC(C)C)C(=O)N[C@H](C[C@H]2CCNC2=O)/C=C\C(=O)OCC3=CC=CC=C3

> <PUBCHEM_CACTVS_TPSA>
198

> <PUBCHEM_MONOISOTOPIC_WEIGHT>
680.353363

> <PUBCHEM_TOTAL_CHARGE>
0

> <PUBCHEM_HEAVY_ATOM_COUNT>
49

> <PUBCHEM_ATOM_DEF_STEREO_COUNT>
4

> <PUBCHEM_ATOM_UDEF_STEREO_COUNT>
1

> <PUBCHEM_BOND_DEF_STEREO_COUNT>
1

> <PUBCHEM_BOND_UDEF_STEREO_COUNT>
0

> <PUBCHEM_ISOTOPIC_ATOM_COUNT>
0

> <PUBCHEM_COMPONENT_COUNT>
1

> <PUBCHEM_CACTVS_TAUTO_COUNT>
-1

> <PUBCHEM_COORDINATE_TYPE>
1
5
255

> <PUBCHEM_BONDANNOTATIONS>
18  10  5
21  11  6
26  12  6
14  40  8
15  16  6
35  37  3
40  42  8
41  43  8
41  44  8
42  45  8
43  46  8
44  47  8
46  48  8
47  48  8
8  14  8
8  45  8

$$$$
22977005
  -OEChem-02212016592D

 80 81  0     1  0  0  0  0  0999 V2000
    5.3147    0.5020    0.0000 O   0  0  0  0  0  0  0  0  0  0  0  0
    7.9128   -1.9980    0.0000 O   0  0  0  0  0  0  0  0  0  0  0  0
    4.4487    1.0020    0.0000 O   0  0  0  0  0  0  0  0  0  0  0  0
    2.0000    2.8384    0.0000 O   0  0  0  0  0  0  0  0  0  0  0  0
    9.6448   -3.9980    0.0000 O   0  0  0  0  0  0  0  0  0  0  0  0
   13.1090   -0.9980    0.0000 O   0  0  0  0  0  0  0  0  0  0  0  0
   12.2429    0.5020    0.0000 O   0  0  0  0  0  0  0  0  0  0  0  0
    7.0468    0.5020    0.0000 N   0  0  0  0  0  0  0  0  0  0  0  0
    5.3147    2.5020    0.0000 N   0  0  0  0  0  0  0  0  0  0  0  0
    8.7788   -0.4980    0.0000 N   0  0  0  0  0  0  0  0  0  0  0  0
    2.6691    2.0953    0.0000 N   0  0  0  0  0  0  0  0  0  0  0  0
   11.3769   -3.9980    0.0000 N   0  0  0  0  0  0  0  0  0  0  0  0
    7.0468    2.5020    0.0000 C   0  0  0  0  0  0  0  0  0  0  0  0
    6.1808    2.0020    0.0000 C   0  0  3  0  0  0  0  0  0  0  0  0
    7.0468    3.5020    0.0000 C   0  0  0  0  0  0  0  0  0  0  0  0
    7.0468   -0.4980    0.0000 C   0  0  3  0  0  0  0  0  0  0  0  0
    6.1808    1.0020    0.0000 C   0  0  0  0  0  0  0  0  0  0  0  0
    6.1808   -0.9980    0.0000 C   0  0  0  0  0  0  0  0  0  0  0  0
    7.9128    4.0020    0.0000 C   0  0  0  0  0  0  0  0  0  0  0  0
    6.1808    4.0020    0.0000 C   0  0  0  0  0  0  0  0  0  0  0  0
    7.9128   -0.9980    0.0000 C   0  0  0  0  0  0  0  0  0  0  0  0
    9.6448   -0.9980    0.0000 C   0  0  3  0  0  0  0  0  0  0  0  0
    9.6448   -1.9980    0.0000 C   0  0  0  0  0  0  0  0  0  0  0  0
    6.1808   -1.9980    0.0000 C   0  0  0  0  0  0  0  0  0  0  0  0
    4.4487    2.0020    0.0000 C   0  0  0  0  0  0  0  0  0  0  0  0
   10.5109   -2.4980    0.0000 C   0  0  0  0  0  0  0  0  0  0  0  0
   10.5109   -0.4980    0.0000 C   0  0  0  0  0  0  0  0  0  0  0  0
    5.3147   -2.4980    0.0000 C   0  0  0  0  0  0  0  0  0  0  0  0
    7.0468   -2.4980    0.0000 C   0  0  0  0  0  0  0  0  0  0  0  0
    3.5827    2.5020    0.0000 C   0  0  0  0  0  0  0  0  0  0  0  0
    5.3147   -3.4980    0.0000 C   0  0  0  0  0  0  0  0  0  0  0  0
    7.0468   -3.4980    0.0000 C   0  0  0  0  0  0  0  0  0  0  0  0
   10.5109   -3.4980    0.0000 C   0  0  0  0  0  0  0  0  0  0  0  0
   11.3769   -0.9980    0.0000 C   0  0  0  0  0  0  0  0  0  0  0  0
    6.1808   -3.9980    0.0000 C   0  0  0  0  0  0  0  0  0  0  0  0
    3.4782    3.4965    0.0000 C   0  0  0  0  0  0  0  0  0  0  0  0
    2.5000    3.7044    0.0000 C   0  0  0  0  0  0  0  0  0  0  0  0
   12.2429   -0.4980    0.0000 C   0  0  0  0  0  0  0  0  0  0  0  0
    2.0933    4.6180    0.0000 C   0  0  0  0  0  0  0  0  0  0  0  0
   13.9750   -0.4980    0.0000 C   0  0  0  0  0  0  0  0  0  0  0  0
   14.8410   -0.9980    0.0000 C   0  0  0  0  0  0  0  0  0  0  0  0
    7.2588    1.9194    0.0000 H   0  0  0  0  0  0  0  0  0  0  0  0
    7.6574    2.6097    0.0000 H   0  0  0  0  0  0  0  0  0  0  0  0
    6.1808    2.6220    0.0000 H   0  0  0  0  0  0  0  0  0  0  0  0
    7.0468    4.1220    0.0000 H   0  0  0  0  0  0  0  0  0  0  0  0
    7.5837   -0.1880    0.0000 H   0  0  0  0  0  0  0  0  0  0  0  0
    7.5837    0.8120    0.0000 H   0  0  0  0  0  0  0  0  0  0  0  0
    5.9687   -0.4154    0.0000 H   0  0  0  0  0  0  0  0  0  0  0  0
    5.5702   -1.1056    0.0000 H   0  0  0  0  0  0  0  0  0  0  0  0
    8.2228    3.4651    0.0000 H   0  0  0  0  0  0  0  0  0  0  0  0
    8.4497    4.3120    0.0000 H   0  0  0  0  0  0  0  0  0  0  0  0
    7.6028    4.5390    0.0000 H   0  0  0  0  0  0  0  0  0  0  0  0
    6.4908    4.5390    0.0000 H   0  0  0  0  0  0  0  0  0  0  0  0
    5.6438    4.3120    0.0000 H   0  0  0  0  0  0  0  0  0  0  0  0
    5.8708    3.4651    0.0000 H   0  0  0  0  0  0  0  0  0  0  0  0
    5.3147    3.1220    0.0000 H   0  0  0  0  0  0  0  0  0  0  0  0
    9.1079   -1.3080    0.0000 H   0  0  0  0  0  0  0  0  0  0  0  0
    8.7788    0.1220    0.0000 H   0  0  0  0  0  0  0  0  0  0  0  0
    9.0343   -1.8903    0.0000 H   0  0  0  0  0  0  0  0  0  0  0  0
    9.4328   -2.5806    0.0000 H   0  0  0  0  0  0  0  0  0  0  0  0
   11.1215   -2.6056    0.0000 H   0  0  0  0  0  0  0  0  0  0  0  0
   10.7229   -1.9154    0.0000 H   0  0  0  0  0  0  0  0  0  0  0  0
   10.5109    0.1220    0.0000 H   0  0  0  0  0  0  0  0  0  0  0  0
    4.7778   -2.1880    0.0000 H   0  0  0  0  0  0  0  0  0  0  0  0
    7.5837   -2.1880    0.0000 H   0  0  0  0  0  0  0  0  0  0  0  0
    4.7778   -3.8080    0.0000 H   0  0  0  0  0  0  0  0  0  0  0  0
    7.5837   -3.8080    0.0000 H   0  0  0  0  0  0  0  0  0  0  0  0
   11.3769   -1.6180    0.0000 H   0  0  0  0  0  0  0  0  0  0  0  0
    6.1808   -4.6180    0.0000 H   0  0  0  0  0  0  0  0  0  0  0  0
    3.9389    3.9114    0.0000 H   0  0  0  0  0  0  0  0  0  0  0  0
   11.3769   -4.6180    0.0000 H   0  0  0  0  0  0  0  0  0  0  0  0
   11.9138   -3.6880    0.0000 H   0  0  0  0  0  0  0  0  0  0  0  0
    2.6597    4.8702    0.0000 H   0  0  0  0  0  0  0  0  0  0  0  0
    1.8411    5.1844    0.0000 H   0  0  0  0  0  0  0  0  0  0  0  0
    1.5269    4.3658    0.0000 H   0  0  0  0  0  0  0  0  0  0  0  0
   14.3735   -0.0230    0.0000 H   0  0  0  0  0  0  0  0  0  0  0  0
   13.5765   -0.0230    0.0000 H   0  0  0  0  0  0  0  0  0  0  0  0
   14.5310   -1.5349    0.0000 H   0  0  0  0  0  0  0  0  0  0  0  0
   15.3779   -1.3080    0.0000 H   0  0  0  0  0  0  0  0  0  0  0  0
   15.1510   -0.4611    0.0000 H   0  0  0  0  0  0  0  0  0  0  0  0
  1 17  2  0  0  0  0
  2 21  2  0  0  0  0
  3 25  2  0  0  0  0
  4 11  1  0  0  0  0
  4 37  1  0  0  0  0
  5 33  2  0  0  0  0
  6 38  1  0  0  0  0
  6 40  1  0  0  0  0
  7 38  2  0  0  0  0
  8 16  1  0  0  0  0
  8 17  1  0  0  0  0
  8 47  1  0  0  0  0
  9 14  1  0  0  0  0
  9 25  1  0  0  0  0
  9 56  1  0  0  0  0
 10 21  1  0  0  0  0
 10 22  1  0  0  0  0
 10 58  1  0  0  0  0
 11 30  2  0  0  0  0
 12 33  1  0  0  0  0
 12 71  1  0  0  0  0
 12 72  1  0  0  0  0
 13 14  1  0  0  0  0
 13 15  1  0  0  0  0
 13 42  1  0  0  0  0
 13 43  1  0  0  0  0
 14 17  1  0  0  0  0
 14 44  1  0  0  0  0
 15 19  1  0  0  0  0
 15 20  1  0  0  0  0
 15 45  1  0  0  0  0
 16 18  1  0  0  0  0
 16 21  1  0  0  0  0
 16 46  1  0  0  0  0
 18 24  1  0  0  0  0
 18 48  1  0  0  0  0
 18 49  1  0  0  0  0
 19 50  1  0  0  0  0
 19 51  1  0  0  0  0
 19 52  1  0  0  0  0
 20 53  1  0  0  0  0
 20 54  1  0  0  0  0
 20 55  1  0  0  0  0
 22 23  1  0  0  0  0
 22 27  1  0  0  0  0
 22 57  1  0  0  0  0
 23 26  1  0  0  0  0
 23 59  1  0  0  0  0
 23 60  1  0  0  0  0
 24 28  2  0  0  0  0
 24 29  1  0  0  0  0
 25 30  1  0  0  0  0
 26 33  1  0  0  0  0
 26 61  1  0  0  0  0
 26 62  1  0  0  0  0
 27 34  2  0  0  0  0
 27 63  1  0  0  0  0
 28 31  1  0  0  0  0
 28 64  1  0  0  0  0
 29 32  2  0  0  0  0
 29 65  1  0  0  0  0
 30 36  1  0  0  0  0
 31 35  2  0  0  0  0
 31 66  1  0  0  0  0
 32 35  1  0  0  0  0
 32 67  1  0  0  0  0
 34 38  1  0  0  0  0
 34 68  1  0  0  0  0
 35 69  1  0  0  0  0
 36 37  2  0  0  0  0
 36 70  1  0  0  0  0
 37 39  1  0  0  0  0
 39 73  1  0  0  0  0
 39 74  1  0  0  0  0
 39 75  1  0  0  0  0
 40 41  1  0  0  0  0
 40 76  1  0  0  0  0
 40 77  1  0  0  0  0
 41 78  1  0  0  0  0
 41 79  1  0  0  0  0
 41 80  1  0  0  0  0
M  END
> <PUBCHEM_COMPOUND_CID>
22977005

> <PUBCHEM_COMPOUND_CANONICALIZED>
1

> <PUBCHEM_CACTVS_COMPLEXITY>
919

> <PUBCHEM_CACTVS_HBOND_ACCEPTOR>
8

> <PUBCHEM_CACTVS_HBOND_DONOR>
4

> <PUBCHEM_CACTVS_ROTATABLE_BOND>
17

> <PUBCHEM_CACTVS_SUBSKEYS>
AAADcfB7uAAAAAAAAAAAAAAAAAAAAWAAAAAwAAAAAAAAAAABwAAAHgAUAAAADSzhngYyjJLQBACpA6XyWgCCAAAmIgAomKG+bNoIZjqAtbOWMYhmlhiI6cc/iICOAAAAAAAAAAAAAAAAAAAAAAAAAAAAAA==

> <PUBCHEM_IUPAC_OPENEYE_NAME>
ethyl (E)-7-amino-4-[[2-[[4-methyl-2-[(5-methylisoxazole-3-carbonyl)amino]pentanoyl]amino]-3-phenyl-propanoyl]amino]-7-oxo-hept-2-enoate

> <PUBCHEM_IUPAC_CAS_NAME>
(E)-7-amino-4-[[2-[[4-methyl-2-[[(5-methyl-3-isoxazolyl)-oxomethyl]amino]-1-oxopentyl]amino]-1-oxo-3-phenylpropyl]amino]-7-oxo-2-heptenoic acid ethyl ester

> <PUBCHEM_IUPAC_NAME_MARKUP>
ethyl (<I>E</I>)-7-amino-4-[[2-[[4-methyl-2-[(5-methyl-1,2-oxazole-3-carbonyl)amino]pentanoyl]amino]-3-phenylpropanoyl]amino]-7-oxohept-2-enoate

> <PUBCHEM_IUPAC_NAME>
ethyl (E)-7-amino-4-[[2-[[4-methyl-2-[(5-methyl-1,2-oxazole-3-carbonyl)amino]pentanoyl]amino]-3-phenylpropanoyl]amino]-7-oxohept-2-enoate

> <PUBCHEM_IUPAC_SYSTEMATIC_NAME>
ethyl (E)-7-azanyl-4-[[2-[[4-methyl-2-[(5-methyl-1,2-oxazol-3-yl)carbonylamino]pentanoyl]amino]-3-phenyl-propanoyl]amino]-7-oxidanylidene-hept-2-enoate

> <PUBCHEM_IUPAC_TRADITIONAL_NAME>
(E)-7-amino-7-keto-4-[[2-[[4-methyl-2-[(5-methylisoxazole-3-carbonyl)amino]pentanoyl]amino]-3-phenyl-propanoyl]amino]hept-2-enoic acid ethyl ester

> <PUBCHEM_IUPAC_INCHI>
InChI=1S/C29H39N5O7/c1-5-40-26(36)14-12-21(11-13-25(30)35)31-27(37)23(17-20-9-7-6-8-10-20)33-28(38)22(15-18(2)3)32-29(39)24-16-19(4)41-34-24/h6-10,12,14,16,18,21-23H,5,11,13,15,17H2,1-4H3,(H2,30,35)(H,31,37)(H,32,39)(H,33,38)/b14-12+

> <PUBCHEM_IUPAC_INCHIKEY>
PRJDINOEQYAYIT-WYMLVPIESA-N

> <PUBCHEM_XLOGP3_AA>
2.5

> <PUBCHEM_EXACT_MASS>
569.284949

> <PUBCHEM_MOLECULAR_FORMULA>
C29H39N5O7

> <PUBCHEM_MOLECULAR_WEIGHT>
569.6

> <PUBCHEM_OPENEYE_CAN_SMILES>
CCOC(=O)C=CC(CCC(=O)N)NC(=O)C(CC1=CC=CC=C1)NC(=O)C(CC(C)C)NC(=O)C2=NOC(=C2)C

> <PUBCHEM_OPENEYE_ISO_SMILES>
CCOC(=O)/C=C/C(CCC(=O)N)NC(=O)C(CC1=CC=CC=C1)NC(=O)C(CC(C)C)NC(=O)C2=NOC(=C2)C

> <PUBCHEM_CACTVS_TPSA>
183

> <PUBCHEM_MONOISOTOPIC_WEIGHT>
569.284949

> <PUBCHEM_TOTAL_CHARGE>
0

> <PUBCHEM_HEAVY_ATOM_COUNT>
41

> <PUBCHEM_ATOM_DEF_STEREO_COUNT>
0

> <PUBCHEM_ATOM_UDEF_STEREO_COUNT>
3

> <PUBCHEM_BOND_DEF_STEREO_COUNT>
1

> <PUBCHEM_BOND_UDEF_STEREO_COUNT>
0

> <PUBCHEM_ISOTOPIC_ATOM_COUNT>
0

> <PUBCHEM_COMPONENT_COUNT>
1

> <PUBCHEM_CACTVS_TAUTO_COUNT>
-1

> <PUBCHEM_COORDINATE_TYPE>
1
5
255

> <PUBCHEM_BONDANNOTATIONS>
11  30  8
14  13  3
16  18  3
22  23  3
24  28  8
24  29  8
28  31  8
29  32  8
30  36  8
31  35  8
32  35  8
36  37  8
4  11  8
4  37  8

$$$$
22977012
  -OEChem-02212016592D

 83 84  0     1  0  0  0  0  0999 V2000
    6.1808   -4.8080    0.0000 F   0  0  0  0  0  0  0  0  0  0  0  0
    5.3147    0.6920    0.0000 O   0  0  0  0  0  0  0  0  0  0  0  0
    7.9128   -1.8080    0.0000 O   0  0  0  0  0  0  0  0  0  0  0  0
    4.4487    1.1920    0.0000 O   0  0  0  0  0  0  0  0  0  0  0  0
    2.0000    3.0284    0.0000 O   0  0  0  0  0  0  0  0  0  0  0  0
    9.6448   -3.8080    0.0000 O   0  0  0  0  0  0  0  0  0  0  0  0
   13.1090   -0.8080    0.0000 O   0  0  0  0  0  0  0  0  0  0  0  0
   12.2429    0.6920    0.0000 O   0  0  0  0  0  0  0  0  0  0  0  0
    7.0468    0.6920    0.0000 N   0  0  0  0  0  0  0  0  0  0  0  0
    5.3147    2.6920    0.0000 N   0  0  0  0  0  0  0  0  0  0  0  0
    8.7788   -0.3080    0.0000 N   0  0  0  0  0  0  0  0  0  0  0  0
    2.6691    2.2853    0.0000 N   0  0  0  0  0  0  0  0  0  0  0  0
   11.3769   -3.8080    0.0000 N   0  0  0  0  0  0  0  0  0  0  0  0
    6.1808    2.1920    0.0000 C   0  0  3  0  0  0  0  0  0  0  0  0
    7.0468    2.6920    0.0000 C   0  0  0  0  0  0  0  0  0  0  0  0
    7.0468   -0.3080    0.0000 C   0  0  3  0  0  0  0  0  0  0  0  0
    7.0468    3.6920    0.0000 C   0  0  0  0  0  0  0  0  0  0  0  0
    6.1808    1.1920    0.0000 C   0  0  0  0  0  0  0  0  0  0  0  0
    6.1808   -0.8080    0.0000 C   0  0  0  0  0  0  0  0  0  0  0  0
    7.9128   -0.8080    0.0000 C   0  0  0  0  0  0  0  0  0  0  0  0
    7.9128    4.1920    0.0000 C   0  0  0  0  0  0  0  0  0  0  0  0
    6.1808    4.1920    0.0000 C   0  0  0  0  0  0  0  0  0  0  0  0
    9.6448   -0.8080    0.0000 C   0  0  3  0  0  0  0  0  0  0  0  0
    7.9128    1.1920    0.0000 C   0  0  0  0  0  0  0  0  0  0  0  0
    6.1808   -1.8080    0.0000 C   0  0  0  0  0  0  0  0  0  0  0  0
    9.6448   -1.8080    0.0000 C   0  0  0  0  0  0  0  0  0  0  0  0
    4.4487    2.1920    0.0000 C   0  0  0  0  0  0  0  0  0  0  0  0
   10.5109   -2.3080    0.0000 C   0  0  0  0  0  0  0  0  0  0  0  0
   10.5109   -0.3080    0.0000 C   0  0  0  0  0  0  0  0  0  0  0  0
    7.0468   -2.3080    0.0000 C   0  0  0  0  0  0  0  0  0  0  0  0
    5.3147   -2.3080    0.0000 C   0  0  0  0  0  0  0  0  0  0  0  0
    3.5827    2.6920    0.0000 C   0  0  0  0  0  0  0  0  0  0  0  0
    7.0468   -3.3080    0.0000 C   0  0  0  0  0  0  0  0  0  0  0  0
    5.3147   -3.3080    0.0000 C   0  0  0  0  0  0  0  0  0  0  0  0
    6.1808   -3.8080    0.0000 C   0  0  0  0  0  0  0  0  0  0  0  0
   10.5109   -3.3080    0.0000 C   0  0  0  0  0  0  0  0  0  0  0  0
   11.3769   -0.8080    0.0000 C   0  0  0  0  0  0  0  0  0  0  0  0
    3.4782    3.6865    0.0000 C   0  0  0  0  0  0  0  0  0  0  0  0
    2.5000    3.8944    0.0000 C   0  0  0  0  0  0  0  0  0  0  0  0
   12.2429   -0.3080    0.0000 C   0  0  0  0  0  0  0  0  0  0  0  0
    2.0933    4.8080    0.0000 C   0  0  0  0  0  0  0  0  0  0  0  0
   13.9750   -0.3080    0.0000 C   0  0  0  0  0  0  0  0  0  0  0  0
   14.8410   -0.8080    0.0000 C   0  0  0  0  0  0  0  0  0  0  0  0
    6.1808    2.8120    0.0000 H   0  0  0  0  0  0  0  0  0  0  0  0
    7.2588    2.1094    0.0000 H   0  0  0  0  0  0  0  0  0  0  0  0
    7.6574    2.7997    0.0000 H   0  0  0  0  0  0  0  0  0  0  0  0
    7.5837    0.0020    0.0000 H   0  0  0  0  0  0  0  0  0  0  0  0
    7.0468    4.3120    0.0000 H   0  0  0  0  0  0  0  0  0  0  0  0
    5.9687   -0.2254    0.0000 H   0  0  0  0  0  0  0  0  0  0  0  0
    5.5702   -0.9157    0.0000 H   0  0  0  0  0  0  0  0  0  0  0  0
    5.3147    3.3120    0.0000 H   0  0  0  0  0  0  0  0  0  0  0  0
    8.2228    3.6551    0.0000 H   0  0  0  0  0  0  0  0  0  0  0  0
    8.4497    4.5020    0.0000 H   0  0  0  0  0  0  0  0  0  0  0  0
    7.6028    4.7290    0.0000 H   0  0  0  0  0  0  0  0  0  0  0  0
    6.4908    4.7290    0.0000 H   0  0  0  0  0  0  0  0  0  0  0  0
    5.6438    4.5020    0.0000 H   0  0  0  0  0  0  0  0  0  0  0  0
    5.8708    3.6551    0.0000 H   0  0  0  0  0  0  0  0  0  0  0  0
    9.1079   -1.1180    0.0000 H   0  0  0  0  0  0  0  0  0  0  0  0
    8.2228    0.6551    0.0000 H   0  0  0  0  0  0  0  0  0  0  0  0
    8.4497    1.5020    0.0000 H   0  0  0  0  0  0  0  0  0  0  0  0
    7.6028    1.7290    0.0000 H   0  0  0  0  0  0  0  0  0  0  0  0
    8.7788    0.3120    0.0000 H   0  0  0  0  0  0  0  0  0  0  0  0
    9.0343   -1.7003    0.0000 H   0  0  0  0  0  0  0  0  0  0  0  0
    9.4328   -2.3906    0.0000 H   0  0  0  0  0  0  0  0  0  0  0  0
   11.1215   -2.4156    0.0000 H   0  0  0  0  0  0  0  0  0  0  0  0
   10.7229   -1.7254    0.0000 H   0  0  0  0  0  0  0  0  0  0  0  0
   10.5109    0.3120    0.0000 H   0  0  0  0  0  0  0  0  0  0  0  0
    7.5837   -1.9980    0.0000 H   0  0  0  0  0  0  0  0  0  0  0  0
    4.7778   -1.9980    0.0000 H   0  0  0  0  0  0  0  0  0  0  0  0
    7.5837   -3.6180    0.0000 H   0  0  0  0  0  0  0  0  0  0  0  0
    4.7778   -3.6180    0.0000 H   0  0  0  0  0  0  0  0  0  0  0  0
   11.3769   -1.4280    0.0000 H   0  0  0  0  0  0  0  0  0  0  0  0
    3.9389    4.1014    0.0000 H   0  0  0  0  0  0  0  0  0  0  0  0
   11.3769   -4.4280    0.0000 H   0  0  0  0  0  0  0  0  0  0  0  0
   11.9138   -3.4980    0.0000 H   0  0  0  0  0  0  0  0  0  0  0  0
    2.6597    5.0602    0.0000 H   0  0  0  0  0  0  0  0  0  0  0  0
    1.8411    5.3744    0.0000 H   0  0  0  0  0  0  0  0  0  0  0  0
    1.5269    4.5558    0.0000 H   0  0  0  0  0  0  0  0  0  0  0  0
   14.3735    0.1670    0.0000 H   0  0  0  0  0  0  0  0  0  0  0  0
   13.5765    0.1670    0.0000 H   0  0  0  0  0  0  0  0  0  0  0  0
   14.5310   -1.3449    0.0000 H   0  0  0  0  0  0  0  0  0  0  0  0
   15.3779   -1.1180    0.0000 H   0  0  0  0  0  0  0  0  0  0  0  0
   15.1510   -0.2711    0.0000 H   0  0  0  0  0  0  0  0  0  0  0  0
  1 35  1  0  0  0  0
  2 18  2  0  0  0  0
  3 20  2  0  0  0  0
  4 27  2  0  0  0  0
  5 12  1  0  0  0  0
  5 39  1  0  0  0  0
  6 36  2  0  0  0  0
  7 40  1  0  0  0  0
  7 42  1  0  0  0  0
  8 40  2  0  0  0  0
  9 16  1  0  0  0  0
  9 18  1  0  0  0  0
  9 24  1  0  0  0  0
 10 14  1  0  0  0  0
 10 27  1  0  0  0  0
 10 51  1  0  0  0  0
 11 20  1  0  0  0  0
 11 23  1  0  0  0  0
 11 62  1  0  0  0  0
 12 32  2  0  0  0  0
 13 36  1  0  0  0  0
 13 74  1  0  0  0  0
 13 75  1  0  0  0  0
 14 15  1  0  0  0  0
 14 18  1  0  0  0  0
 14 44  1  0  0  0  0
 15 17  1  0  0  0  0
 15 45  1  0  0  0  0
 15 46  1  0  0  0  0
 16 19  1  0  0  0  0
 16 20  1  0  0  0  0
 16 47  1  0  0  0  0
 17 21  1  0  0  0  0
 17 22  1  0  0  0  0
 17 48  1  0  0  0  0
 19 25  1  0  0  0  0
 19 49  1  0  0  0  0
 19 50  1  0  0  0  0
 21 52  1  0  0  0  0
 21 53  1  0  0  0  0
 21 54  1  0  0  0  0
 22 55  1  0  0  0  0
 22 56  1  0  0  0  0
 22 57  1  0  0  0  0
 23 26  1  0  0  0  0
 23 29  1  0  0  0  0
 23 58  1  0  0  0  0
 24 59  1  0  0  0  0
 24 60  1  0  0  0  0
 24 61  1  0  0  0  0
 25 30  2  0  0  0  0
 25 31  1  0  0  0  0
 26 28  1  0  0  0  0
 26 63  1  0  0  0  0
 26 64  1  0  0  0  0
 27 32  1  0  0  0  0
 28 36  1  0  0  0  0
 28 65  1  0  0  0  0
 28 66  1  0  0  0  0
 29 37  2  0  0  0  0
 29 67  1  0  0  0  0
 30 33  1  0  0  0  0
 30 68  1  0  0  0  0
 31 34  2  0  0  0  0
 31 69  1  0  0  0  0
 32 38  1  0  0  0  0
 33 35  2  0  0  0  0
 33 70  1  0  0  0  0
 34 35  1  0  0  0  0
 34 71  1  0  0  0  0
 37 40  1  0  0  0  0
 37 72  1  0  0  0  0
 38 39  2  0  0  0  0
 38 73  1  0  0  0  0
 39 41  1  0  0  0  0
 41 76  1  0  0  0  0
 41 77  1  0  0  0  0
 41 78  1  0  0  0  0
 42 43  1  0  0  0  0
 42 79  1  0  0  0  0
 42 80  1  0  0  0  0
 43 81  1  0  0  0  0
 43 82  1  0  0  0  0
 43 83  1  0  0  0  0
M  END
> <PUBCHEM_COMPOUND_CID>
22977012

> <PUBCHEM_COMPOUND_CANONICALIZED>
1

> <PUBCHEM_CACTVS_COMPLEXITY>
986

> <PUBCHEM_CACTVS_HBOND_ACCEPTOR>
9

> <PUBCHEM_CACTVS_HBOND_DONOR>
3

> <PUBCHEM_CACTVS_ROTATABLE_BOND>
17

> <PUBCHEM_CACTVS_SUBSKEYS>
AAADcfB7uQAAAAAAAAAAAAAAAAAAAWAAAAAwAAAAAAAAAAABwAAAHwAUAAAADSzhng4yjJPQBACpA6XyWgCCAAAmIgAomKG+bNoIZjqAtbOWMYhmlhiI6cc/iICOAAAAAAAAAAAAAAAAAAAAAAAAAAAAAA==

> <PUBCHEM_IUPAC_OPENEYE_NAME>
ethyl (E)-7-amino-4-[[3-(4-fluorophenyl)-2-[methyl-[4-methyl-2-[(5-methylisoxazole-3-carbonyl)amino]pentanoyl]amino]propanoyl]amino]-7-oxo-hept-2-enoate

> <PUBCHEM_IUPAC_CAS_NAME>
(E)-7-amino-4-[[3-(4-fluorophenyl)-2-[methyl-[4-methyl-2-[[(5-methyl-3-isoxazolyl)-oxomethyl]amino]-1-oxopentyl]amino]-1-oxopropyl]amino]-7-oxo-2-heptenoic acid ethyl ester

> <PUBCHEM_IUPAC_NAME_MARKUP>
ethyl (<I>E</I>)-7-amino-4-[[3-(4-fluorophenyl)-2-[methyl-[4-methyl-2-[(5-methyl-1,2-oxazole-3-carbonyl)amino]pentanoyl]amino]propanoyl]amino]-7-oxohept-2-enoate

> <PUBCHEM_IUPAC_NAME>
ethyl (E)-7-amino-4-[[3-(4-fluorophenyl)-2-[methyl-[4-methyl-2-[(5-methyl-1,2-oxazole-3-carbonyl)amino]pentanoyl]amino]propanoyl]amino]-7-oxohept-2-enoate

> <PUBCHEM_IUPAC_SYSTEMATIC_NAME>
ethyl (E)-7-azanyl-4-[[3-(4-fluorophenyl)-2-[methyl-[4-methyl-2-[(5-methyl-1,2-oxazol-3-yl)carbonylamino]pentanoyl]amino]propanoyl]amino]-7-oxidanylidene-hept-2-enoate

> <PUBCHEM_IUPAC_TRADITIONAL_NAME>
(E)-7-amino-4-[[3-(4-fluorophenyl)-2-[methyl-[4-methyl-2-[(5-methylisoxazole-3-carbonyl)amino]pentanoyl]amino]propanoyl]amino]-7-keto-hept-2-enoic acid ethyl ester

> <PUBCHEM_IUPAC_INCHI>
InChI=1S/C30H40FN5O7/c1-6-42-27(38)14-12-22(11-13-26(32)37)33-29(40)25(17-20-7-9-21(31)10-8-20)36(5)30(41)24(15-18(2)3)34-28(39)23-16-19(4)43-35-23/h7-10,12,14,16,18,22,24-25H,6,11,13,15,17H2,1-5H3,(H2,32,37)(H,33,40)(H,34,39)/b14-12+

> <PUBCHEM_IUPAC_INCHIKEY>
SBFKUKHKIOGZJR-WYMLVPIESA-N

> <PUBCHEM_XLOGP3_AA>
2.8

> <PUBCHEM_EXACT_MASS>
601.291177

> <PUBCHEM_MOLECULAR_FORMULA>
C30H40FN5O7

> <PUBCHEM_MOLECULAR_WEIGHT>
601.7

> <PUBCHEM_OPENEYE_CAN_SMILES>
CCOC(=O)C=CC(CCC(=O)N)NC(=O)C(CC1=CC=C(C=C1)F)N(C)C(=O)C(CC(C)C)NC(=O)C2=NOC(=C2)C

> <PUBCHEM_OPENEYE_ISO_SMILES>
CCOC(=O)/C=C/C(CCC(=O)N)NC(=O)C(CC1=CC=C(C=C1)F)N(C)C(=O)C(CC(C)C)NC(=O)C2=NOC(=C2)C

> <PUBCHEM_CACTVS_TPSA>
174

> <PUBCHEM_MONOISOTOPIC_WEIGHT>
601.291177

> <PUBCHEM_TOTAL_CHARGE>
0

> <PUBCHEM_HEAVY_ATOM_COUNT>
43

> <PUBCHEM_ATOM_DEF_STEREO_COUNT>
0

> <PUBCHEM_ATOM_UDEF_STEREO_COUNT>
3

> <PUBCHEM_BOND_DEF_STEREO_COUNT>
1

> <PUBCHEM_BOND_UDEF_STEREO_COUNT>
0

> <PUBCHEM_ISOTOPIC_ATOM_COUNT>
0

> <PUBCHEM_COMPONENT_COUNT>
1

> <PUBCHEM_CACTVS_TAUTO_COUNT>
-1

> <PUBCHEM_COORDINATE_TYPE>
1
5
255

> <PUBCHEM_BONDANNOTATIONS>
12  32  8
14  15  3
16  19  3
23  26  3
25  30  8
25  31  8
30  33  8
31  34  8
32  38  8
33  35  8
34  35  8
38  39  8
5  12  8
5  39  8

$$$$
23559876
  -OEChem-02212016592D

 75 78  0     1  0  0  0  0  0999 V2000
   10.7663    0.0769    0.0000 O   0  0  0  0  0  0  0  0  0  0  0  0
    7.9128    0.6920    0.0000 O   0  0  0  0  0  0  0  0  0  0  0  0
    4.4487    1.6920    0.0000 O   0  0  0  0  0  0  0  0  0  0  0  0
    6.1808   -4.3080    0.0000 O   0  0  0  0  0  0  0  0  0  0  0  0
    7.9128   -4.3080    0.0000 O   0  0  0  0  0  0  0  0  0  0  0  0
    5.3147    5.1920    0.0000 O   0  0  0  0  0  0  0  0  0  0  0  0
    2.0000    5.5284    0.0000 O   0  0  0  0  0  0  0  0  0  0  0  0
   11.2275   -1.6444    0.0000 N   0  0  0  0  0  0  0  0  0  0  0  0
    7.0468   -0.8080    0.0000 N   0  0  0  0  0  0  0  0  0  0  0  0
    6.1808    1.6920    0.0000 N   0  0  0  0  0  0  0  0  0  0  0  0
    4.4487    3.6920    0.0000 N   0  0  0  0  0  0  0  0  0  0  0  0
    2.6691    4.7853    0.0000 N   0  0  0  0  0  0  0  0  0  0  0  0
    9.6448   -1.3080    0.0000 C   0  0  3  0  0  0  0  0  0  0  0  0
    8.7788   -0.8080    0.0000 C   0  0  0  0  0  0  0  0  0  0  0  0
    9.7494   -2.3025    0.0000 C   0  0  0  0  0  0  0  0  0  0  0  0
    7.9128   -1.3080    0.0000 C   0  0  3  0  0  0  0  0  0  0  0  0
   10.7275   -2.5104    0.0000 C   0  0  0  0  0  0  0  0  0  0  0  0
   10.5584   -0.9013    0.0000 C   0  0  0  0  0  0  0  0  0  0  0  0
    7.9128   -2.3080    0.0000 C   0  0  0  0  0  0  0  0  0  0  0  0
    6.1808    0.6920    0.0000 C   0  0  3  0  0  0  0  0  0  0  0  0
    7.0468    0.1920    0.0000 C   0  0  0  0  0  0  0  0  0  0  0  0
    5.3147    0.1920    0.0000 C   0  0  0  0  0  0  0  0  0  0  0  0
    7.0468   -2.8080    0.0000 C   0  0  0  0  0  0  0  0  0  0  0  0
    5.3147   -0.8080    0.0000 C   0  0  0  0  0  0  0  0  0  0  0  0
    5.3147    2.1920    0.0000 C   0  0  0  0  0  0  0  0  0  0  0  0
    7.0468    2.1920    0.0000 C   0  0  0  0  0  0  0  0  0  0  0  0
    5.3147    3.1920    0.0000 C   0  0  0  0  0  0  0  0  0  0  0  0
    7.0468   -3.8080    0.0000 C   0  0  0  0  0  0  0  0  0  0  0  0
    7.0468    3.1920    0.0000 C   0  0  0  0  0  0  0  0  0  0  0  0
    6.1808    3.6920    0.0000 C   0  0  0  0  0  0  0  0  0  0  0  0
    6.1808   -5.3080    0.0000 C   0  0  0  0  0  0  0  0  0  0  0  0
    4.4487    4.6920    0.0000 C   0  0  0  0  0  0  0  0  0  0  0  0
    5.3147   -5.8080    0.0000 C   0  0  0  0  0  0  0  0  0  0  0  0
    3.5827    5.1920    0.0000 C   0  0  0  0  0  0  0  0  0  0  0  0
    3.4782    6.1865    0.0000 C   0  0  0  0  0  0  0  0  0  0  0  0
    4.4487   -5.3080    0.0000 C   0  0  0  0  0  0  0  0  0  0  0  0
    5.3147   -6.8080    0.0000 C   0  0  0  0  0  0  0  0  0  0  0  0
    2.5000    6.3944    0.0000 C   0  0  0  0  0  0  0  0  0  0  0  0
    3.5827   -5.8080    0.0000 C   0  0  0  0  0  0  0  0  0  0  0  0
    4.4487   -7.3080    0.0000 C   0  0  0  0  0  0  0  0  0  0  0  0
    3.5827   -6.8080    0.0000 C   0  0  0  0  0  0  0  0  0  0  0  0
    2.0933    7.3080    0.0000 C   0  0  0  0  0  0  0  0  0  0  0  0
    9.1249   -1.6457    0.0000 H   0  0  0  0  0  0  0  0  0  0  0  0
    9.1774   -0.3330    0.0000 H   0  0  0  0  0  0  0  0  0  0  0  0
    8.3803   -0.3330    0.0000 H   0  0  0  0  0  0  0  0  0  0  0  0
    9.1294   -2.3025    0.0000 H   0  0  0  0  0  0  0  0  0  0  0  0
    9.6846   -2.9191    0.0000 H   0  0  0  0  0  0  0  0  0  0  0  0
    7.9128   -0.6880    0.0000 H   0  0  0  0  0  0  0  0  0  0  0  0
   10.5359   -3.1001    0.0000 H   0  0  0  0  0  0  0  0  0  0  0  0
   11.2939   -2.7626    0.0000 H   0  0  0  0  0  0  0  0  0  0  0  0
   11.8441   -1.5796    0.0000 H   0  0  0  0  0  0  0  0  0  0  0  0
    6.5098   -1.1180    0.0000 H   0  0  0  0  0  0  0  0  0  0  0  0
    8.4497   -2.6180    0.0000 H   0  0  0  0  0  0  0  0  0  0  0  0
    6.7177    1.0020    0.0000 H   0  0  0  0  0  0  0  0  0  0  0  0
    5.1027    0.7746    0.0000 H   0  0  0  0  0  0  0  0  0  0  0  0
    4.7042    0.0843    0.0000 H   0  0  0  0  0  0  0  0  0  0  0  0
    6.5098   -2.4980    0.0000 H   0  0  0  0  0  0  0  0  0  0  0  0
    4.6947   -0.8080    0.0000 H   0  0  0  0  0  0  0  0  0  0  0  0
    5.3147   -1.4280    0.0000 H   0  0  0  0  0  0  0  0  0  0  0  0
    5.9347   -0.8080    0.0000 H   0  0  0  0  0  0  0  0  0  0  0  0
    7.5837    1.8820    0.0000 H   0  0  0  0  0  0  0  0  0  0  0  0
    7.5837    3.5020    0.0000 H   0  0  0  0  0  0  0  0  0  0  0  0
    6.1808    4.3120    0.0000 H   0  0  0  0  0  0  0  0  0  0  0  0
    3.9118    3.3820    0.0000 H   0  0  0  0  0  0  0  0  0  0  0  0
    6.3928   -5.8906    0.0000 H   0  0  0  0  0  0  0  0  0  0  0  0
    6.7913   -5.2003    0.0000 H   0  0  0  0  0  0  0  0  0  0  0  0
    3.9389    6.6014    0.0000 H   0  0  0  0  0  0  0  0  0  0  0  0
    4.4487   -4.6880    0.0000 H   0  0  0  0  0  0  0  0  0  0  0  0
    5.8517   -7.1180    0.0000 H   0  0  0  0  0  0  0  0  0  0  0  0
    3.0457   -5.4980    0.0000 H   0  0  0  0  0  0  0  0  0  0  0  0
    4.4487   -7.9280    0.0000 H   0  0  0  0  0  0  0  0  0  0  0  0
    3.0457   -7.1180    0.0000 H   0  0  0  0  0  0  0  0  0  0  0  0
    2.6597    7.5602    0.0000 H   0  0  0  0  0  0  0  0  0  0  0  0
    1.8411    7.8744    0.0000 H   0  0  0  0  0  0  0  0  0  0  0  0
    1.5269    7.0558    0.0000 H   0  0  0  0  0  0  0  0  0  0  0  0
  1 18  2  0  0  0  0
  2 21  2  0  0  0  0
  3 25  2  0  0  0  0
  4 28  1  0  0  0  0
  4 31  1  0  0  0  0
  5 28  2  0  0  0  0
  6 32  2  0  0  0  0
  7 12  1  0  0  0  0
  7 38  1  0  0  0  0
  8 17  1  0  0  0  0
  8 18  1  0  0  0  0
  8 51  1  0  0  0  0
  9 16  1  0  0  0  0
  9 21  1  0  0  0  0
  9 52  1  0  0  0  0
 10 20  1  0  0  0  0
 10 25  1  0  0  0  0
 10 26  1  0  0  0  0
 11 27  1  0  0  0  0
 11 32  1  0  0  0  0
 11 64  1  0  0  0  0
 12 34  2  0  0  0  0
 13 14  1  0  0  0  0
 13 15  1  0  0  0  0
 13 18  1  0  0  0  0
 13 43  1  0  0  0  0
 14 16  1  0  0  0  0
 14 44  1  0  0  0  0
 14 45  1  0  0  0  0
 15 17  1  0  0  0  0
 15 46  1  0  0  0  0
 15 47  1  0  0  0  0
 16 19  1  0  0  0  0
 16 48  1  0  0  0  0
 17 49  1  0  0  0  0
 17 50  1  0  0  0  0
 19 23  2  0  0  0  0
 19 53  1  0  0  0  0
 20 21  1  0  0  0  0
 20 22  1  0  0  0  0
 20 54  1  0  0  0  0
 22 24  1  0  0  0  0
 22 55  1  0  0  0  0
 22 56  1  0  0  0  0
 23 28  1  0  0  0  0
 23 57  1  0  0  0  0
 24 58  1  0  0  0  0
 24 59  1  0  0  0  0
 24 60  1  0  0  0  0
 25 27  1  0  0  0  0
 26 29  2  0  0  0  0
 26 61  1  0  0  0  0
 27 30  2  0  0  0  0
 29 30  1  0  0  0  0
 29 62  1  0  0  0  0
 30 63  1  0  0  0  0
 31 33  1  0  0  0  0
 31 65  1  0  0  0  0
 31 66  1  0  0  0  0
 32 34  1  0  0  0  0
 33 36  2  0  0  0  0
 33 37  1  0  0  0  0
 34 35  1  0  0  0  0
 35 38  2  0  0  0  0
 35 67  1  0  0  0  0
 36 39  1  0  0  0  0
 36 68  1  0  0  0  0
 37 40  2  0  0  0  0
 37 69  1  0  0  0  0
 38 42  1  0  0  0  0
 39 41  2  0  0  0  0
 39 70  1  0  0  0  0
 40 41  1  0  0  0  0
 40 71  1  0  0  0  0
 41 72  1  0  0  0  0
 42 73  1  0  0  0  0
 42 74  1  0  0  0  0
 42 75  1  0  0  0  0
M  END
> <PUBCHEM_COMPOUND_CID>
23559876

> <PUBCHEM_COMPOUND_CANONICALIZED>
1

> <PUBCHEM_CACTVS_COMPLEXITY>
1110

> <PUBCHEM_CACTVS_HBOND_ACCEPTOR>
8

> <PUBCHEM_CACTVS_HBOND_DONOR>
3

> <PUBCHEM_CACTVS_ROTATABLE_BOND>
13

> <PUBCHEM_CACTVS_SUBSKEYS>
AAADcfB7uAAAAAAAAAAAAAAAAAAAAWLAAAAwQAAAAAAAAAABwAAAHgAUAAAADSzhngYyjJPQBACpA6X2WgCCAAAmIgAomKG+bNoIZjqAtbuWMYhm1hmI6ce/wCAOAAAAAAAAAAAAAAAAAAAAAAAAAAAAAA==

> <PUBCHEM_IUPAC_OPENEYE_NAME>
benzyl (E)-4-[2-[3-[(5-methylisoxazole-3-carbonyl)amino]-2-oxo-1-pyridyl]butanoylamino]-5-(2-oxopyrrolidin-3-yl)pent-2-enoate

> <PUBCHEM_IUPAC_CAS_NAME>
(E)-4-[[2-[3-[[(5-methyl-3-isoxazolyl)-oxomethyl]amino]-2-oxo-1-pyridinyl]-1-oxobutyl]amino]-5-(2-oxo-3-pyrrolidinyl)-2-pentenoic acid (phenylmethyl) ester

> <PUBCHEM_IUPAC_NAME_MARKUP>
benzyl (<I>E</I>)-4-[2-[3-[(5-methyl-1,2-oxazole-3-carbonyl)amino]-2-oxopyridin-1-yl]butanoylamino]-5-(2-oxopyrrolidin-3-yl)pent-2-enoate

> <PUBCHEM_IUPAC_NAME>
benzyl (E)-4-[2-[3-[(5-methyl-1,2-oxazole-3-carbonyl)amino]-2-oxopyridin-1-yl]butanoylamino]-5-(2-oxopyrrolidin-3-yl)pent-2-enoate

> <PUBCHEM_IUPAC_SYSTEMATIC_NAME>
(phenylmethyl) (E)-4-[2-[3-[(5-methyl-1,2-oxazol-3-yl)carbonylamino]-2-oxidanylidene-pyridin-1-yl]butanoylamino]-5-(2-oxidanylidenepyrrolidin-3-yl)pent-2-enoate

> <PUBCHEM_IUPAC_TRADITIONAL_NAME>
(E)-4-[2-[2-keto-3-[(5-methylisoxazole-3-carbonyl)amino]-1-pyridyl]butanoylamino]-5-(2-ketopyrrolidin-3-yl)pent-2-enoic acid benzyl ester

> <PUBCHEM_IUPAC_INCHI>
InChI=1S/C30H33N5O7/c1-3-25(35-15-7-10-23(30(35)40)33-28(38)24-16-19(2)42-34-24)29(39)32-22(17-21-13-14-31-27(21)37)11-12-26(36)41-18-20-8-5-4-6-9-20/h4-12,15-16,21-22,25H,3,13-14,17-18H2,1-2H3,(H,31,37)(H,32,39)(H,33,38)/b12-11+

> <PUBCHEM_IUPAC_INCHIKEY>
JCRZIFCWUXJHSS-VAWYXSNFSA-N

> <PUBCHEM_XLOGP3_AA>
2.3

> <PUBCHEM_EXACT_MASS>
575.237998

> <PUBCHEM_MOLECULAR_FORMULA>
C30H33N5O7

> <PUBCHEM_MOLECULAR_WEIGHT>
575.6

> <PUBCHEM_OPENEYE_CAN_SMILES>
CCC(C(=O)NC(CC1CCNC1=O)C=CC(=O)OCC2=CC=CC=C2)N3C=CC=C(C3=O)NC(=O)C4=NOC(=C4)C

> <PUBCHEM_OPENEYE_ISO_SMILES>
CCC(C(=O)NC(CC1CCNC1=O)/C=C/C(=O)OCC2=CC=CC=C2)N3C=CC=C(C3=O)NC(=O)C4=NOC(=C4)C

> <PUBCHEM_CACTVS_TPSA>
160

> <PUBCHEM_MONOISOTOPIC_WEIGHT>
575.237998

> <PUBCHEM_TOTAL_CHARGE>
0

> <PUBCHEM_HEAVY_ATOM_COUNT>
42

> <PUBCHEM_ATOM_DEF_STEREO_COUNT>
0

> <PUBCHEM_ATOM_UDEF_STEREO_COUNT>
3

> <PUBCHEM_BOND_DEF_STEREO_COUNT>
1

> <PUBCHEM_BOND_UDEF_STEREO_COUNT>
0

> <PUBCHEM_ISOTOPIC_ATOM_COUNT>
0

> <PUBCHEM_COMPONENT_COUNT>
1

> <PUBCHEM_CACTVS_TAUTO_COUNT>
-1

> <PUBCHEM_COORDINATE_TYPE>
1
5
255

> <PUBCHEM_BONDANNOTATIONS>
10  25  8
10  26  8
12  34  8
13  14  3
16  14  3
20  22  3
25  27  8
26  29  8
27  30  8
29  30  8
33  36  8
33  37  8
34  35  8
35  38  8
36  39  8
37  40  8
39  41  8
40  41  8
7  12  8
7  38  8

$$$$
23594721
  -OEChem-02212016592D

 74 76  0     1  0  0  0  0  0999 V2000
    4.5981   -5.2702    0.0000 F   0  0  0  0  0  0  0  0  0  0  0  0
    7.2242    3.5086    0.0000 O   0  0  0  0  0  0  0  0  0  0  0  0
    6.3301   -1.2702    0.0000 O   0  0  0  0  0  0  0  0  0  0  0  0
    6.3301    0.7298    0.0000 O   0  0  0  0  0  0  0  0  0  0  0  0
    7.1962    0.2298    0.0000 O   0  0  0  0  0  0  0  0  0  0  0  0
    9.7942   -2.2702    0.0000 O   0  0  0  0  0  0  0  0  0  0  0  0
   11.7429    0.4322    0.0000 O   0  0  0  0  0  0  0  0  0  0  0  0
    5.9641    4.7686    0.0000 N   0  0  0  0  0  0  0  0  0  0  0  0
    4.5981    0.7298    0.0000 N   0  0  0  0  0  0  0  0  0  0  0  0
    8.9282   -0.7702    0.0000 N   0  0  0  0  0  0  0  0  0  0  0  0
   10.7648    0.2243    0.0000 N   0  0  0  0  0  0  0  0  0  0  0  0
    5.4641    3.2298    0.0000 C   0  0  3  0  0  0  0  0  0  0  0  0
    5.4641    2.2298    0.0000 C   0  0  0  0  0  0  0  0  0  0  0  0
    4.6551    3.8176    0.0000 C   0  0  0  0  0  0  0  0  0  0  0  0
    4.5981    1.7298    0.0000 C   0  0  3  0  0  0  0  0  0  0  0  0
    4.9641    4.7686    0.0000 C   0  0  0  0  0  0  0  0  0  0  0  0
    6.2731    3.8176    0.0000 C   0  0  0  0  0  0  0  0  0  0  0  0
    3.7320    2.2298    0.0000 C   0  0  0  0  0  0  0  0  0  0  0  0
    5.4641   -0.7702    0.0000 C   0  0  3  0  0  0  0  0  0  0  0  0
    5.4641    0.2298    0.0000 C   0  0  0  0  0  0  0  0  0  0  0  0
    8.0622   -1.2702    0.0000 C   0  0  3  0  0  0  0  0  0  0  0  0
    8.0622   -2.2702    0.0000 C   0  0  0  0  0  0  0  0  0  0  0  0
    4.5981   -1.2702    0.0000 C   0  0  0  0  0  0  0  0  0  0  0  0
    2.8660    1.7298    0.0000 C   0  0  0  0  0  0  0  0  0  0  0  0
    7.1962   -0.7702    0.0000 C   0  0  0  0  0  0  0  0  0  0  0  0
    4.5981   -2.2702    0.0000 C   0  0  0  0  0  0  0  0  0  0  0  0
    8.9282   -2.7702    0.0000 C   0  0  0  0  0  0  0  0  0  0  0  0
    7.1962   -2.7702    0.0000 C   0  0  0  0  0  0  0  0  0  0  0  0
    2.0000    2.2298    0.0000 C   0  0  0  0  0  0  0  0  0  0  0  0
    5.4641   -2.7702    0.0000 C   0  0  0  0  0  0  0  0  0  0  0  0
    3.7320   -2.7702    0.0000 C   0  0  0  0  0  0  0  0  0  0  0  0
    9.7942   -1.2702    0.0000 C   0  0  0  0  0  0  0  0  0  0  0  0
    5.4641   -3.7702    0.0000 C   0  0  0  0  0  0  0  0  0  0  0  0
    3.7320   -3.7702    0.0000 C   0  0  0  0  0  0  0  0  0  0  0  0
   10.6603   -0.7702    0.0000 C   0  0  0  0  0  0  0  0  0  0  0  0
    4.5981   -4.2702    0.0000 C   0  0  0  0  0  0  0  0  0  0  0  0
   11.5738   -1.1770    0.0000 C   0  0  0  0  0  0  0  0  0  0  0  0
   12.2429   -0.4338    0.0000 C   0  0  0  0  0  0  0  0  0  0  0  0
   13.2375   -0.5383    0.0000 C   0  0  0  0  0  0  0  0  0  0  0  0
    6.0165    2.9483    0.0000 H   0  0  0  0  0  0  0  0  0  0  0  0
    5.6762    1.6472    0.0000 H   0  0  0  0  0  0  0  0  0  0  0  0
    6.0747    2.3374    0.0000 H   0  0  0  0  0  0  0  0  0  0  0  0
    4.0887    4.0698    0.0000 H   0  0  0  0  0  0  0  0  0  0  0  0
    4.3451    3.2806    0.0000 H   0  0  0  0  0  0  0  0  0  0  0  0
    5.1350    1.4198    0.0000 H   0  0  0  0  0  0  0  0  0  0  0  0
    5.0289    5.3852    0.0000 H   0  0  0  0  0  0  0  0  0  0  0  0
    4.3576    4.8975    0.0000 H   0  0  0  0  0  0  0  0  0  0  0  0
    6.3285    5.2702    0.0000 H   0  0  0  0  0  0  0  0  0  0  0  0
    4.0611    0.4198    0.0000 H   0  0  0  0  0  0  0  0  0  0  0  0
    3.7320    2.8498    0.0000 H   0  0  0  0  0  0  0  0  0  0  0  0
    5.4641   -1.3902    0.0000 H   0  0  0  0  0  0  0  0  0  0  0  0
    8.0622   -0.6502    0.0000 H   0  0  0  0  0  0  0  0  0  0  0  0
    8.0622   -2.8902    0.0000 H   0  0  0  0  0  0  0  0  0  0  0  0
    4.3860   -0.6876    0.0000 H   0  0  0  0  0  0  0  0  0  0  0  0
    3.9875   -1.3779    0.0000 H   0  0  0  0  0  0  0  0  0  0  0  0
    2.8660    1.1098    0.0000 H   0  0  0  0  0  0  0  0  0  0  0  0
    8.6182   -3.3072    0.0000 H   0  0  0  0  0  0  0  0  0  0  0  0
    9.4651   -3.0802    0.0000 H   0  0  0  0  0  0  0  0  0  0  0  0
    9.2382   -2.2333    0.0000 H   0  0  0  0  0  0  0  0  0  0  0  0
    6.8862   -2.2333    0.0000 H   0  0  0  0  0  0  0  0  0  0  0  0
    6.6592   -3.0802    0.0000 H   0  0  0  0  0  0  0  0  0  0  0  0
    7.5062   -3.3072    0.0000 H   0  0  0  0  0  0  0  0  0  0  0  0
    8.9282   -0.1502    0.0000 H   0  0  0  0  0  0  0  0  0  0  0  0
    2.3100    2.7667    0.0000 H   0  0  0  0  0  0  0  0  0  0  0  0
    1.4631    2.5398    0.0000 H   0  0  0  0  0  0  0  0  0  0  0  0
    1.6900    1.6928    0.0000 H   0  0  0  0  0  0  0  0  0  0  0  0
    6.0010   -2.4602    0.0000 H   0  0  0  0  0  0  0  0  0  0  0  0
    3.1951   -2.4602    0.0000 H   0  0  0  0  0  0  0  0  0  0  0  0
    6.0010   -4.0802    0.0000 H   0  0  0  0  0  0  0  0  0  0  0  0
    3.1951   -4.0802    0.0000 H   0  0  0  0  0  0  0  0  0  0  0  0
   11.7027   -1.7834    0.0000 H   0  0  0  0  0  0  0  0  0  0  0  0
   13.1726   -1.1549    0.0000 H   0  0  0  0  0  0  0  0  0  0  0  0
   13.8541   -0.6031    0.0000 H   0  0  0  0  0  0  0  0  0  0  0  0
   13.3023    0.0783    0.0000 H   0  0  0  0  0  0  0  0  0  0  0  0
  1 36  1  0  0  0  0
  2 17  2  0  0  0  0
  3 19  1  0  0  0  0
  3 25  1  0  0  0  0
  4 20  2  0  0  0  0
  5 25  2  0  0  0  0
  6 32  2  0  0  0  0
  7 11  1  0  0  0  0
  7 38  1  0  0  0  0
  8 16  1  0  0  0  0
  8 17  1  0  0  0  0
  8 48  1  0  0  0  0
  9 15  1  0  0  0  0
  9 20  1  0  0  0  0
  9 49  1  0  0  0  0
 10 21  1  0  0  0  0
 10 32  1  0  0  0  0
 10 63  1  0  0  0  0
 11 35  2  0  0  0  0
 12 13  1  0  0  0  0
 12 14  1  0  0  0  0
 12 17  1  0  0  0  0
 12 40  1  0  0  0  0
 13 15  1  0  0  0  0
 13 41  1  0  0  0  0
 13 42  1  0  0  0  0
 14 16  1  0  0  0  0
 14 43  1  0  0  0  0
 14 44  1  0  0  0  0
 15 18  1  0  0  0  0
 15 45  1  0  0  0  0
 16 46  1  0  0  0  0
 16 47  1  0  0  0  0
 18 24  2  0  0  0  0
 18 50  1  0  0  0  0
 19 20  1  0  0  0  0
 19 23  1  0  0  0  0
 19 51  1  0  0  0  0
 21 22  1  0  0  0  0
 21 25  1  0  0  0  0
 21 52  1  0  0  0  0
 22 27  1  0  0  0  0
 22 28  1  0  0  0  0
 22 53  1  0  0  0  0
 23 26  1  0  0  0  0
 23 54  1  0  0  0  0
 23 55  1  0  0  0  0
 24 29  1  0  0  0  0
 24 56  1  0  0  0  0
 26 30  2  0  0  0  0
 26 31  1  0  0  0  0
 27 57  1  0  0  0  0
 27 58  1  0  0  0  0
 27 59  1  0  0  0  0
 28 60  1  0  0  0  0
 28 61  1  0  0  0  0
 28 62  1  0  0  0  0
 29 64  1  0  0  0  0
 29 65  1  0  0  0  0
 29 66  1  0  0  0  0
 30 33  1  0  0  0  0
 30 67  1  0  0  0  0
 31 34  2  0  0  0  0
 31 68  1  0  0  0  0
 32 35  1  0  0  0  0
 33 36  2  0  0  0  0
 33 69  1  0  0  0  0
 34 36  1  0  0  0  0
 34 70  1  0  0  0  0
 35 37  1  0  0  0  0
 37 38  2  0  0  0  0
 37 71  1  0  0  0  0
 38 39  1  0  0  0  0
 39 72  1  0  0  0  0
 39 73  1  0  0  0  0
 39 74  1  0  0  0  0
M  END
> <PUBCHEM_COMPOUND_CID>
23594721

> <PUBCHEM_COMPOUND_CANONICALIZED>
1

> <PUBCHEM_CACTVS_COMPLEXITY>
891

> <PUBCHEM_CACTVS_HBOND_ACCEPTOR>
8

> <PUBCHEM_CACTVS_HBOND_DONOR>
3

> <PUBCHEM_CACTVS_ROTATABLE_BOND>
13

> <PUBCHEM_CACTVS_SUBSKEYS>
AAADcfB7uQAAAAAAAAAAAAAAAAAAAWLAAAAwAAAAAAAAAAABwAAAHwAUAAAADTzhng4yjJLQBACpA6XyWgKCAAAmIgAomKH+bNoKZjqAlbeXMYhm1hmYyce/yKCOAAAAAAAAAAAAAAAAAAAAAAAAAAAAAA==

> <PUBCHEM_IUPAC_OPENEYE_NAME>
[1-[(4-fluorophenyl)methyl]-2-oxo-2-[[(E)-1-[(2-oxopyrrolidin-3-yl)methyl]but-2-enyl]amino]ethyl] 3-methyl-2-[(5-methylisoxazole-3-carbonyl)amino]butanoate

> <PUBCHEM_IUPAC_CAS_NAME>
3-methyl-2-[[(5-methyl-3-isoxazolyl)-oxomethyl]amino]butanoic acid [3-(4-fluorophenyl)-1-oxo-1-[[(E)-1-(2-oxo-3-pyrrolidinyl)pent-3-en-2-yl]amino]propan-2-yl] ester

> <PUBCHEM_IUPAC_NAME_MARKUP>
[3-(4-fluorophenyl)-1-oxo-1-[[(<I>E</I>)-1-(2-oxopyrrolidin-3-yl)pent-3-en-2-yl]amino]propan-2-yl] 3-methyl-2-[(5-methyl-1,2-oxazole-3-carbonyl)amino]butanoate

> <PUBCHEM_IUPAC_NAME>
[3-(4-fluorophenyl)-1-oxo-1-[[(E)-1-(2-oxopyrrolidin-3-yl)pent-3-en-2-yl]amino]propan-2-yl] 3-methyl-2-[(5-methyl-1,2-oxazole-3-carbonyl)amino]butanoate

> <PUBCHEM_IUPAC_SYSTEMATIC_NAME>
[3-(4-fluorophenyl)-1-oxidanylidene-1-[[(E)-1-(2-oxidanylidenepyrrolidin-3-yl)pent-3-en-2-yl]amino]propan-2-yl] 3-methyl-2-[(5-methyl-1,2-oxazol-3-yl)carbonylamino]butanoate

> <PUBCHEM_IUPAC_TRADITIONAL_NAME>
3-methyl-2-[(5-methylisoxazole-3-carbonyl)amino]butyric acid [1-(4-fluorobenzyl)-2-keto-2-[[(E)-1-[(2-ketopyrrolidin-3-yl)methyl]but-2-enyl]amino]ethyl] ester

> <PUBCHEM_IUPAC_INCHI>
InChI=1S/C28H35FN4O6/c1-5-6-21(15-19-11-12-30-25(19)34)31-27(36)23(14-18-7-9-20(29)10-8-18)38-28(37)24(16(2)3)32-26(35)22-13-17(4)39-33-22/h5-10,13,16,19,21,23-24H,11-12,14-15H2,1-4H3,(H,30,34)(H,31,36)(H,32,35)/b6-5+

> <PUBCHEM_IUPAC_INCHIKEY>
UDOLSCZJDUOCTM-AATRIKPKSA-N

> <PUBCHEM_XLOGP3_AA>
3.8

> <PUBCHEM_EXACT_MASS>
542.254063

> <PUBCHEM_MOLECULAR_FORMULA>
C28H35FN4O6

> <PUBCHEM_MOLECULAR_WEIGHT>
542.6

> <PUBCHEM_OPENEYE_CAN_SMILES>
CC=CC(CC1CCNC1=O)NC(=O)C(CC2=CC=C(C=C2)F)OC(=O)C(C(C)C)NC(=O)C3=NOC(=C3)C

> <PUBCHEM_OPENEYE_ISO_SMILES>
C/C=C/C(CC1CCNC1=O)NC(=O)C(CC2=CC=C(C=C2)F)OC(=O)C(C(C)C)NC(=O)C3=NOC(=C3)C

> <PUBCHEM_CACTVS_TPSA>
140

> <PUBCHEM_MONOISOTOPIC_WEIGHT>
542.254063

> <PUBCHEM_TOTAL_CHARGE>
0

> <PUBCHEM_HEAVY_ATOM_COUNT>
39

> <PUBCHEM_ATOM_DEF_STEREO_COUNT>
0

> <PUBCHEM_ATOM_UDEF_STEREO_COUNT>
4

> <PUBCHEM_BOND_DEF_STEREO_COUNT>
1

> <PUBCHEM_BOND_UDEF_STEREO_COUNT>
0

> <PUBCHEM_ISOTOPIC_ATOM_COUNT>
0

> <PUBCHEM_COMPONENT_COUNT>
1

> <PUBCHEM_CACTVS_TAUTO_COUNT>
-1

> <PUBCHEM_COORDINATE_TYPE>
1
5
255

> <PUBCHEM_BONDANNOTATIONS>
11  35  8
12  13  3
15  13  3
19  23  3
21  22  3
26  30  8
26  31  8
30  33  8
31  34  8
33  36  8
34  36  8
35  37  8
37  38  8
7  11  8
7  38  8

$$$$
23727975
  -OEChem-02212016592D

100102  0     1  0  0  0  0  0999 V2000
   10.5109    0.6920    0.0000 S   0  0  0  0  0  0  0  0  0  0  0  0
   13.3364    2.3557    0.0000 O   0  0  0  0  0  0  0  0  0  0  0  0
   10.5109    1.6920    0.0000 O   0  0  0  0  0  0  0  0  0  0  0  0
   10.5109   -2.3080    0.0000 O   0  0  0  0  0  0  0  0  0  0  0  0
    9.6448   -0.8080    0.0000 O   0  0  0  0  0  0  0  0  0  0  0  0
    9.6448    2.1920    0.0000 O   0  0  0  0  0  0  0  0  0  0  0  0
    7.0468    4.6920    0.0000 O   0  0  0  0  0  0  0  0  0  0  0  0
    4.4487    2.1920    0.0000 O   0  0  0  0  0  0  0  0  0  0  0  0
    2.0000    4.0284    0.0000 O   0  0  0  0  0  0  0  0  0  0  0  0
   12.2429    1.6920    0.0000 N   0  0  0  0  0  0  0  0  0  0  0  0
   15.0577    1.8944    0.0000 N   0  0  0  0  0  0  0  0  0  0  0  0
   10.5109    3.6920    0.0000 N   0  0  0  0  0  0  0  0  0  0  0  0
    7.9128    3.1920    0.0000 N   0  0  0  0  0  0  0  0  0  0  0  0
    5.3147    3.6920    0.0000 N   0  0  0  0  0  0  0  0  0  0  0  0
    2.6691    3.2853    0.0000 N   0  0  0  0  0  0  0  0  0  0  0  0
   13.9750    0.6920    0.0000 C   0  0  2  0  0  0  0  0  0  0  0  0
   13.1090    0.1920    0.0000 C   0  0  0  0  0  0  0  0  0  0  0  0
   12.2429    0.6920    0.0000 C   0  0  1  0  0  0  0  0  0  0  0  0
   14.8885    0.2853    0.0000 C   0  0  0  0  0  0  0  0  0  0  0  0
   11.3769    0.1920    0.0000 C   0  0  2  0  0  0  0  0  0  0  0  0
   15.5577    1.0284    0.0000 C   0  0  0  0  0  0  0  0  0  0  0  0
   14.0795    1.6865    0.0000 C   0  0  0  0  0  0  0  0  0  0  0  0
   11.3769    3.1920    0.0000 C   0  0  2  0  0  0  0  0  0  0  0  0
   11.3769   -0.8080    0.0000 C   0  0  0  0  0  0  0  0  0  0  0  0
   11.3769    2.1920    0.0000 C   0  0  0  0  0  0  0  0  0  0  0  0
   12.2429    3.6920    0.0000 C   0  0  0  0  0  0  0  0  0  0  0  0
   12.2429    4.6920    0.0000 C   0  0  0  0  0  0  0  0  0  0  0  0
    8.7788    3.6920    0.0000 C   0  0  2  0  0  0  0  0  0  0  0  0
   10.5109   -1.3080    0.0000 C   0  0  0  0  0  0  0  0  0  0  0  0
    9.6448    3.1920    0.0000 C   0  0  0  0  0  0  0  0  0  0  0  0
    8.7788    4.6920    0.0000 C   0  0  0  0  0  0  0  0  0  0  0  0
   13.1090    5.1920    0.0000 C   0  0  0  0  0  0  0  0  0  0  0  0
   11.3769    5.1920    0.0000 C   0  0  0  0  0  0  0  0  0  0  0  0
    7.9128    5.1920    0.0000 C   0  0  0  0  0  0  0  0  0  0  0  0
    9.6448    5.1920    0.0000 C   0  0  0  0  0  0  0  0  0  0  0  0
    7.0468    3.6920    0.0000 C   0  0  0  0  0  0  0  0  0  0  0  0
    6.1808    3.1920    0.0000 C   0  0  2  0  0  0  0  0  0  0  0  0
    9.6448   -2.8080    0.0000 C   0  0  0  0  0  0  0  0  0  0  0  0
    6.1808    2.1920    0.0000 C   0  0  0  0  0  0  0  0  0  0  0  0
    9.6448   -3.8080    0.0000 C   0  0  0  0  0  0  0  0  0  0  0  0
    8.7788   -4.3080    0.0000 C   0  0  0  0  0  0  0  0  0  0  0  0
   10.5109   -4.3080    0.0000 C   0  0  0  0  0  0  0  0  0  0  0  0
    4.4487    3.1920    0.0000 C   0  0  0  0  0  0  0  0  0  0  0  0
    8.7788   -5.3080    0.0000 C   0  0  0  0  0  0  0  0  0  0  0  0
   10.5109   -5.3080    0.0000 C   0  0  0  0  0  0  0  0  0  0  0  0
    3.5827    3.6920    0.0000 C   0  0  0  0  0  0  0  0  0  0  0  0
    9.6448   -5.8080    0.0000 C   0  0  0  0  0  0  0  0  0  0  0  0
    3.4782    4.6865    0.0000 C   0  0  0  0  0  0  0  0  0  0  0  0
    2.5000    4.8944    0.0000 C   0  0  0  0  0  0  0  0  0  0  0  0
    2.0933    5.8080    0.0000 C   0  0  0  0  0  0  0  0  0  0  0  0
   14.0074    0.0729    0.0000 H   0  0  0  0  0  0  0  0  0  0  0  0
   12.7104   -0.2829    0.0000 H   0  0  0  0  0  0  0  0  0  0  0  0
   13.5075   -0.2829    0.0000 H   0  0  0  0  0  0  0  0  0  0  0  0
   12.7799    1.0020    0.0000 H   0  0  0  0  0  0  0  0  0  0  0  0
   14.5785   -0.2517    0.0000 H   0  0  0  0  0  0  0  0  0  0  0  0
   15.3901   -0.0792    0.0000 H   0  0  0  0  0  0  0  0  0  0  0  0
   10.8400   -0.1180    0.0000 H   0  0  0  0  0  0  0  0  0  0  0  0
   15.9725    0.5677    0.0000 H   0  0  0  0  0  0  0  0  0  0  0  0
   16.0592    1.3928    0.0000 H   0  0  0  0  0  0  0  0  0  0  0  0
   12.7799    2.0020    0.0000 H   0  0  0  0  0  0  0  0  0  0  0  0
   15.3098    2.4608    0.0000 H   0  0  0  0  0  0  0  0  0  0  0  0
   10.8400    2.8820    0.0000 H   0  0  0  0  0  0  0  0  0  0  0  0
   11.5890   -1.3906    0.0000 H   0  0  0  0  0  0  0  0  0  0  0  0
   11.9875   -0.7003    0.0000 H   0  0  0  0  0  0  0  0  0  0  0  0
   12.4550    3.1094    0.0000 H   0  0  0  0  0  0  0  0  0  0  0  0
   12.8535    3.7997    0.0000 H   0  0  0  0  0  0  0  0  0  0  0  0
   12.7799    4.3820    0.0000 H   0  0  0  0  0  0  0  0  0  0  0  0
   10.5109    4.3120    0.0000 H   0  0  0  0  0  0  0  0  0  0  0  0
    9.9739    0.3820    0.0000 H   0  0  0  0  0  0  0  0  0  0  0  0
    8.2419    4.0020    0.0000 H   0  0  0  0  0  0  0  0  0  0  0  0
    9.3158    4.3820    0.0000 H   0  0  0  0  0  0  0  0  0  0  0  0
   13.4190    4.6551    0.0000 H   0  0  0  0  0  0  0  0  0  0  0  0
   13.6459    5.5020    0.0000 H   0  0  0  0  0  0  0  0  0  0  0  0
   12.7990    5.7290    0.0000 H   0  0  0  0  0  0  0  0  0  0  0  0
   11.6869    5.7290    0.0000 H   0  0  0  0  0  0  0  0  0  0  0  0
   10.8400    5.5020    0.0000 H   0  0  0  0  0  0  0  0  0  0  0  0
   11.0669    4.6551    0.0000 H   0  0  0  0  0  0  0  0  0  0  0  0
    7.9128    2.5720    0.0000 H   0  0  0  0  0  0  0  0  0  0  0  0
    8.2228    5.7290    0.0000 H   0  0  0  0  0  0  0  0  0  0  0  0
    7.3759    5.5020    0.0000 H   0  0  0  0  0  0  0  0  0  0  0  0
    7.6028    4.6551    0.0000 H   0  0  0  0  0  0  0  0  0  0  0  0
    9.9548    4.6551    0.0000 H   0  0  0  0  0  0  0  0  0  0  0  0
   10.1818    5.5020    0.0000 H   0  0  0  0  0  0  0  0  0  0  0  0
    9.3348    5.7290    0.0000 H   0  0  0  0  0  0  0  0  0  0  0  0
    6.1808    3.8120    0.0000 H   0  0  0  0  0  0  0  0  0  0  0  0
    9.4328   -2.2254    0.0000 H   0  0  0  0  0  0  0  0  0  0  0  0
    9.0343   -2.9156    0.0000 H   0  0  0  0  0  0  0  0  0  0  0  0
    5.5608    2.1920    0.0000 H   0  0  0  0  0  0  0  0  0  0  0  0
    6.1808    1.5720    0.0000 H   0  0  0  0  0  0  0  0  0  0  0  0
    6.8008    2.1920    0.0000 H   0  0  0  0  0  0  0  0  0  0  0  0
    5.3147    4.3120    0.0000 H   0  0  0  0  0  0  0  0  0  0  0  0
    8.2419   -3.9980    0.0000 H   0  0  0  0  0  0  0  0  0  0  0  0
   11.0478   -3.9980    0.0000 H   0  0  0  0  0  0  0  0  0  0  0  0
    8.2419   -5.6180    0.0000 H   0  0  0  0  0  0  0  0  0  0  0  0
   11.0478   -5.6180    0.0000 H   0  0  0  0  0  0  0  0  0  0  0  0
    9.6448   -6.4280    0.0000 H   0  0  0  0  0  0  0  0  0  0  0  0
    3.9389    5.1014    0.0000 H   0  0  0  0  0  0  0  0  0  0  0  0
    2.6597    6.0602    0.0000 H   0  0  0  0  0  0  0  0  0  0  0  0
    1.8411    6.3744    0.0000 H   0  0  0  0  0  0  0  0  0  0  0  0
    1.5269    5.5558    0.0000 H   0  0  0  0  0  0  0  0  0  0  0  0
 20  1  1  6  0  0  0
  1 69  1  0  0  0  0
  2 22  2  0  0  0  0
  3 25  2  0  0  0  0
  4 29  1  0  0  0  0
  4 38  1  0  0  0  0
  5 29  2  0  0  0  0
  6 30  2  0  0  0  0
  7 36  2  0  0  0  0
  8 43  2  0  0  0  0
  9 15  1  0  0  0  0
  9 49  1  0  0  0  0
 18 10  1  1  0  0  0
 10 25  1  0  0  0  0
 10 60  1  0  0  0  0
 11 21  1  0  0  0  0
 11 22  1  0  0  0  0
 11 61  1  0  0  0  0
 23 12  1  1  0  0  0
 12 30  1  0  0  0  0
 12 68  1  0  0  0  0
 28 13  1  1  0  0  0
 13 36  1  0  0  0  0
 13 78  1  0  0  0  0
 37 14  1  6  0  0  0
 14 43  1  0  0  0  0
 14 91  1  0  0  0  0
 15 46  2  0  0  0  0
 16 17  1  1  0  0  0
 16 19  1  0  0  0  0
 16 22  1  0  0  0  0
 16 51  1  0  0  0  0
 17 18  1  0  0  0  0
 17 52  1  0  0  0  0
 17 53  1  0  0  0  0
 18 20  1  0  0  0  0
 18 54  1  0  0  0  0
 19 21  1  0  0  0  0
 19 55  1  0  0  0  0
 19 56  1  0  0  0  0
 20 24  1  0  0  0  0
 20 57  1  0  0  0  0
 21 58  1  0  0  0  0
 21 59  1  0  0  0  0
 23 25  1  0  0  0  0
 23 26  1  0  0  0  0
 23 62  1  0  0  0  0
 24 29  1  0  0  0  0
 24 63  1  0  0  0  0
 24 64  1  0  0  0  0
 26 27  1  0  0  0  0
 26 65  1  0  0  0  0
 26 66  1  0  0  0  0
 27 32  1  0  0  0  0
 27 33  1  0  0  0  0
 27 67  1  0  0  0  0
 28 30  1  0  0  0  0
 28 31  1  0  0  0  0
 28 70  1  0  0  0  0
 31 34  1  0  0  0  0
 31 35  1  0  0  0  0
 31 71  1  0  0  0  0
 32 72  1  0  0  0  0
 32 73  1  0  0  0  0
 32 74  1  0  0  0  0
 33 75  1  0  0  0  0
 33 76  1  0  0  0  0
 33 77  1  0  0  0  0
 34 79  1  0  0  0  0
 34 80  1  0  0  0  0
 34 81  1  0  0  0  0
 35 82  1  0  0  0  0
 35 83  1  0  0  0  0
 35 84  1  0  0  0  0
 36 37  1  0  0  0  0
 37 39  1  0  0  0  0
 37 85  1  0  0  0  0
 38 40  1  0  0  0  0
 38 86  1  0  0  0  0
 38 87  1  0  0  0  0
 39 88  1  0  0  0  0
 39 89  1  0  0  0  0
 39 90  1  0  0  0  0
 40 41  2  0  0  0  0
 40 42  1  0  0  0  0
 41 44  1  0  0  0  0
 41 92  1  0  0  0  0
 42 45  2  0  0  0  0
 42 93  1  0  0  0  0
 43 46  1  0  0  0  0
 44 47  2  0  0  0  0
 44 94  1  0  0  0  0
 45 47  1  0  0  0  0
 45 95  1  0  0  0  0
 46 48  1  0  0  0  0
 47 96  1  0  0  0  0
 48 49  2  0  0  0  0
 48 97  1  0  0  0  0
 49 50  1  0  0  0  0
 50 98  1  0  0  0  0
 50 99  1  0  0  0  0
 50100  1  0  0  0  0
M  END
> <PUBCHEM_COMPOUND_CID>
23727975

> <PUBCHEM_COMPOUND_CANONICALIZED>
1

> <PUBCHEM_CACTVS_COMPLEXITY>
1180

> <PUBCHEM_CACTVS_HBOND_ACCEPTOR>
10

> <PUBCHEM_CACTVS_HBOND_DONOR>
6

> <PUBCHEM_CACTVS_ROTATABLE_BOND>
19

> <PUBCHEM_CACTVS_SUBSKEYS>
AAADcfB/vABAAAAAAAAAAAAAAAAAAWLAAAAwAAAAAAAAAAABwAAAHgQUAAAADSzl3gayjJLQBASpA6XyWgCCAAAmIgAomKG+bNoIZjqAtbuWMYhm1hmI6ce/yOCOAAAAAAAAAAAAAAAAAAAAAAAAAAAAAA==

> <PUBCHEM_IUPAC_OPENEYE_NAME>
benzyl (3S,4S)-4-[[(2S)-4-methyl-2-[[(2S)-3-methyl-2-[[(2S)-2-[(5-methylisoxazole-3-carbonyl)amino]propanoyl]amino]butanoyl]amino]pentanoyl]amino]-5-[(3S)-2-oxopyrrolidin-3-yl]-3-sulfanyl-pentanoate

> <PUBCHEM_IUPAC_CAS_NAME>
(3S,4S)-3-mercapto-4-[[(2S)-4-methyl-2-[[(2S)-3-methyl-2-[[(2S)-2-[[(5-methyl-3-isoxazolyl)-oxomethyl]amino]-1-oxopropyl]amino]-1-oxobutyl]amino]-1-oxopentyl]amino]-5-[(3S)-2-oxo-3-pyrrolidinyl]pentanoic acid (phenylmethyl) ester

> <PUBCHEM_IUPAC_NAME_MARKUP>
benzyl (3<I>S</I>,4<I>S</I>)-4-[[(2<I>S</I>)-4-methyl-2-[[(2<I>S</I>)-3-methyl-2-[[(2<I>S</I>)-2-[(5-methyl-1,2-oxazole-3-carbonyl)amino]propanoyl]amino]butanoyl]amino]pentanoyl]amino]-5-[(3<I>S</I>)-2-oxopyrrolidin-3-yl]-3-sulfanylpentanoate

> <PUBCHEM_IUPAC_NAME>
benzyl (3S,4S)-4-[[(2S)-4-methyl-2-[[(2S)-3-methyl-2-[[(2S)-2-[(5-methyl-1,2-oxazole-3-carbonyl)amino]propanoyl]amino]butanoyl]amino]pentanoyl]amino]-5-[(3S)-2-oxopyrrolidin-3-yl]-3-sulfanylpentanoate

> <PUBCHEM_IUPAC_SYSTEMATIC_NAME>
(phenylmethyl) (3S,4S)-4-[[(2S)-4-methyl-2-[[(2S)-3-methyl-2-[[(2S)-2-[(5-methyl-1,2-oxazol-3-yl)carbonylamino]propanoyl]amino]butanoyl]amino]pentanoyl]amino]-5-[(3S)-2-oxidanylidenepyrrolidin-3-yl]-3-sulfanyl-pentanoate

> <PUBCHEM_IUPAC_TRADITIONAL_NAME>
(3S,4S)-5-[(3S)-2-ketopyrrolidin-3-yl]-3-mercapto-4-[[(2S)-4-methyl-2-[[(2S)-3-methyl-2-[[(2S)-2-[(5-methylisoxazole-3-carbonyl)amino]propanoyl]amino]butanoyl]amino]pentanoyl]amino]valeric acid benzyl ester

> <PUBCHEM_IUPAC_INCHI>
InChI=1S/C35H50N6O8S/c1-19(2)14-26(39-35(47)30(20(3)4)40-31(43)22(6)37-34(46)27-15-21(5)49-41-27)33(45)38-25(16-24-12-13-36-32(24)44)28(50)17-29(42)48-18-23-10-8-7-9-11-23/h7-11,15,19-20,22,24-26,28,30,50H,12-14,16-18H2,1-6H3,(H,36,44)(H,37,46)(H,38,45)(H,39,47)(H,40,43)/t22-,24-,25-,26-,28-,30-/m0/s1

> <PUBCHEM_IUPAC_INCHIKEY>
NGZBPZVECYCGNM-AHSVMRCDSA-N

> <PUBCHEM_XLOGP3_AA>
3.4

> <PUBCHEM_EXACT_MASS>
714.341084

> <PUBCHEM_MOLECULAR_FORMULA>
C35H50N6O8S

> <PUBCHEM_MOLECULAR_WEIGHT>
714.9

> <PUBCHEM_OPENEYE_CAN_SMILES>
CC1=CC(=NO1)C(=O)NC(C)C(=O)NC(C(C)C)C(=O)NC(CC(C)C)C(=O)NC(CC2CCNC2=O)C(CC(=O)OCC3=CC=CC=C3)S

> <PUBCHEM_OPENEYE_ISO_SMILES>
CC1=CC(=NO1)C(=O)N[C@@H](C)C(=O)N[C@@H](C(C)C)C(=O)N[C@@H](CC(C)C)C(=O)N[C@@H](C[C@@H]2CCNC2=O)[C@H](CC(=O)OCC3=CC=CC=C3)S

> <PUBCHEM_CACTVS_TPSA>
199

> <PUBCHEM_MONOISOTOPIC_WEIGHT>
714.341084

> <PUBCHEM_TOTAL_CHARGE>
0

> <PUBCHEM_HEAVY_ATOM_COUNT>
50

> <PUBCHEM_ATOM_DEF_STEREO_COUNT>
6

> <PUBCHEM_ATOM_UDEF_STEREO_COUNT>
0

> <PUBCHEM_BOND_DEF_STEREO_COUNT>
0

> <PUBCHEM_BOND_UDEF_STEREO_COUNT>
0

> <PUBCHEM_ISOTOPIC_ATOM_COUNT>
0

> <PUBCHEM_COMPONENT_COUNT>
1

> <PUBCHEM_CACTVS_TAUTO_COUNT>
-1

> <PUBCHEM_COORDINATE_TYPE>
1
5
255

> <PUBCHEM_BONDANNOTATIONS>
20  1  6
18  10  5
23  12  5
28  13  5
37  14  6
15  46  8
16  17  5
40  41  8
40  42  8
41  44  8
42  45  8
44  47  8
45  47  8
46  48  8
48  49  8
9  15  8
9  49  8

$$$$
32045830
  -OEChem-02212016592D

 43 44  0     1  0  0  0  0  0999 V2000
    4.3958    3.9397    0.0000 O   0  0  0  0  0  0  0  0  0  0  0  0
    5.9781    3.2352    0.0000 O   0  0  0  0  0  0  0  0  0  0  0  0
    6.6547   -1.2655    0.0000 O   0  0  0  0  0  0  0  0  0  0  0  0
    3.7634    0.3901    0.0000 O   0  0  0  0  0  0  0  0  0  0  0  0
    5.1646    1.4081    0.0000 N   0  0  0  0  0  0  0  0  0  0  0  0
    6.3457   -0.3144    0.0000 N   0  0  0  0  0  0  0  0  0  0  0  0
    2.9945    2.9216    0.0000 C   0  0  0  0  0  0  0  0  0  0  0  0
    3.5823    2.1126    0.0000 C   0  0  0  0  0  0  0  0  0  0  0  0
    4.5768    2.2172    0.0000 C   0  0  1  0  0  0  0  0  0  0  0  0
    2.0000    2.8171    0.0000 C   0  0  0  0  0  0  0  0  0  0  0  0
    3.4013    3.8352    0.0000 C   0  0  0  0  0  0  0  0  0  0  0  0
    4.9836    3.1307    0.0000 C   0  0  0  0  0  0  0  0  0  0  0  0
    4.7579    0.4946    0.0000 C   0  0  0  0  0  0  0  0  0  0  0  0
    5.3457   -0.3144    0.0000 C   0  0  0  0  0  0  0  0  0  0  0  0
    5.0366   -1.2655    0.0000 C   0  0  0  0  0  0  0  0  0  0  0  0
    5.8457   -1.8533    0.0000 C   0  0  0  0  0  0  0  0  0  0  0  0
    5.8457   -2.8533    0.0000 C   0  0  0  0  0  0  0  0  0  0  0  0
    4.8025    4.8533    0.0000 C   0  0  0  0  0  0  0  0  0  0  0  0
    4.9796   -3.3533    0.0000 C   0  0  0  0  0  0  0  0  0  0  0  0
    6.7117   -3.3533    0.0000 C   0  0  0  0  0  0  0  0  0  0  0  0
    4.9796   -4.3533    0.0000 C   0  0  0  0  0  0  0  0  0  0  0  0
    6.7117   -4.3533    0.0000 C   0  0  0  0  0  0  0  0  0  0  0  0
    5.8457   -4.8533    0.0000 C   0  0  0  0  0  0  0  0  0  0  0  0
    2.7424    2.3552    0.0000 H   0  0  0  0  0  0  0  0  0  0  0  0
    3.0250    1.8408    0.0000 H   0  0  0  0  0  0  0  0  0  0  0  0
    3.7532    1.5166    0.0000 H   0  0  0  0  0  0  0  0  0  0  0  0
    4.3246    1.6508    0.0000 H   0  0  0  0  0  0  0  0  0  0  0  0
    1.9352    3.4337    0.0000 H   0  0  0  0  0  0  0  0  0  0  0  0
    1.3834    2.7523    0.0000 H   0  0  0  0  0  0  0  0  0  0  0  0
    2.0648    2.2005    0.0000 H   0  0  0  0  0  0  0  0  0  0  0  0
    3.9677    3.5830    0.0000 H   0  0  0  0  0  0  0  0  0  0  0  0
    3.6534    4.4016    0.0000 H   0  0  0  0  0  0  0  0  0  0  0  0
    2.8349    4.0874    0.0000 H   0  0  0  0  0  0  0  0  0  0  0  0
    5.7812    1.4730    0.0000 H   0  0  0  0  0  0  0  0  0  0  0  0
    4.4470   -1.4571    0.0000 H   0  0  0  0  0  0  0  0  0  0  0  0
    5.3689    4.6011    0.0000 H   0  0  0  0  0  0  0  0  0  0  0  0
    5.0547    5.4197    0.0000 H   0  0  0  0  0  0  0  0  0  0  0  0
    4.2361    5.1054    0.0000 H   0  0  0  0  0  0  0  0  0  0  0  0
    4.4427   -3.0433    0.0000 H   0  0  0  0  0  0  0  0  0  0  0  0
    7.2486   -3.0433    0.0000 H   0  0  0  0  0  0  0  0  0  0  0  0
    4.4427   -4.6633    0.0000 H   0  0  0  0  0  0  0  0  0  0  0  0
    7.2486   -4.6633    0.0000 H   0  0  0  0  0  0  0  0  0  0  0  0
    5.8457   -5.4733    0.0000 H   0  0  0  0  0  0  0  0  0  0  0  0
  1 12  1  0  0  0  0
  1 18  1  0  0  0  0
  2 12  2  0  0  0  0
  3  6  1  0  0  0  0
  3 16  1  0  0  0  0
  4 13  2  0  0  0  0
  9  5  1  1  0  0  0
  5 13  1  0  0  0  0
  5 34  1  0  0  0  0
  6 14  2  0  0  0  0
  7  8  1  0  0  0  0
  7 10  1  0  0  0  0
  7 11  1  0  0  0  0
  7 24  1  0  0  0  0
  8  9  1  0  0  0  0
  8 25  1  0  0  0  0
  8 26  1  0  0  0  0
  9 12  1  0  0  0  0
  9 27  1  0  0  0  0
 10 28  1  0  0  0  0
 10 29  1  0  0  0  0
 10 30  1  0  0  0  0
 11 31  1  0  0  0  0
 11 32  1  0  0  0  0
 11 33  1  0  0  0  0
 13 14  1  0  0  0  0
 14 15  1  0  0  0  0
 15 16  2  0  0  0  0
 15 35  1  0  0  0  0
 16 17  1  0  0  0  0
 17 19  2  0  0  0  0
 17 20  1  0  0  0  0
 18 36  1  0  0  0  0
 18 37  1  0  0  0  0
 18 38  1  0  0  0  0
 19 21  1  0  0  0  0
 19 39  1  0  0  0  0
 20 22  2  0  0  0  0
 20 40  1  0  0  0  0
 21 23  2  0  0  0  0
 21 41  1  0  0  0  0
 22 23  1  0  0  0  0
 22 42  1  0  0  0  0
 23 43  1  0  0  0  0
M  END
> <PUBCHEM_COMPOUND_CID>
32045830

> <PUBCHEM_COMPOUND_CANONICALIZED>
1

> <PUBCHEM_CACTVS_COMPLEXITY>
407

> <PUBCHEM_CACTVS_HBOND_ACCEPTOR>
5

> <PUBCHEM_CACTVS_HBOND_DONOR>
1

> <PUBCHEM_CACTVS_ROTATABLE_BOND>
7

> <PUBCHEM_CACTVS_SUBSKEYS>
AAADceB7OAAAAAAAAAAAAAAAAAAAAWAAAAAwAAAAAAAAAAABwAAAHgAUAAAADSzBngYyjJLQBACpA6XyWgCCAAAmIgAomKG+bNoKZjqAlbOVMYhm1hmYyce/yKCOAAAAAAAAAAAAAAAAAAAAAAAAAAAAAA==

> <PUBCHEM_IUPAC_OPENEYE_NAME>
methyl (2S)-4-methyl-2-[(5-phenylisoxazole-3-carbonyl)amino]pentanoate

> <PUBCHEM_IUPAC_CAS_NAME>
(2S)-4-methyl-2-[[oxo-(5-phenyl-3-isoxazolyl)methyl]amino]pentanoic acid methyl ester

> <PUBCHEM_IUPAC_NAME_MARKUP>
methyl (2<I>S</I>)-4-methyl-2-[(5-phenyl-1,2-oxazole-3-carbonyl)amino]pentanoate

> <PUBCHEM_IUPAC_NAME>
methyl (2S)-4-methyl-2-[(5-phenyl-1,2-oxazole-3-carbonyl)amino]pentanoate

> <PUBCHEM_IUPAC_SYSTEMATIC_NAME>
methyl (2S)-4-methyl-2-[(5-phenyl-1,2-oxazol-3-yl)carbonylamino]pentanoate

> <PUBCHEM_IUPAC_TRADITIONAL_NAME>
(2S)-4-methyl-2-[(5-phenylisoxazole-3-carbonyl)amino]valeric acid methyl ester

> <PUBCHEM_IUPAC_INCHI>
InChI=1S/C17H20N2O4/c1-11(2)9-14(17(21)22-3)18-16(20)13-10-15(23-19-13)12-7-5-4-6-8-12/h4-8,10-11,14H,9H2,1-3H3,(H,18,20)/t14-/m0/s1

> <PUBCHEM_IUPAC_INCHIKEY>
FRVBHUCZUOZYFR-AWEZNQCLSA-N

> <PUBCHEM_XLOGP3_AA>
3.3

> <PUBCHEM_EXACT_MASS>
316.142307

> <PUBCHEM_MOLECULAR_FORMULA>
C17H20N2O4

> <PUBCHEM_MOLECULAR_WEIGHT>
316.35

> <PUBCHEM_OPENEYE_CAN_SMILES>
CC(C)CC(C(=O)OC)NC(=O)C1=NOC(=C1)C2=CC=CC=C2

> <PUBCHEM_OPENEYE_ISO_SMILES>
CC(C)C[C@@H](C(=O)OC)NC(=O)C1=NOC(=C1)C2=CC=CC=C2

> <PUBCHEM_CACTVS_TPSA>
81.4

> <PUBCHEM_MONOISOTOPIC_WEIGHT>
316.142307

> <PUBCHEM_TOTAL_CHARGE>
0

> <PUBCHEM_HEAVY_ATOM_COUNT>
23

> <PUBCHEM_ATOM_DEF_STEREO_COUNT>
1

> <PUBCHEM_ATOM_UDEF_STEREO_COUNT>
0

> <PUBCHEM_BOND_DEF_STEREO_COUNT>
0

> <PUBCHEM_BOND_UDEF_STEREO_COUNT>
0

> <PUBCHEM_ISOTOPIC_ATOM_COUNT>
0

> <PUBCHEM_COMPONENT_COUNT>
1

> <PUBCHEM_CACTVS_TAUTO_COUNT>
-1

> <PUBCHEM_COORDINATE_TYPE>
1
5
255

> <PUBCHEM_BONDANNOTATIONS>
14  15  8
15  16  8
17  19  8
17  20  8
19  21  8
20  22  8
21  23  8
22  23  8
3  16  8
3  6  8
9  5  5
6  14  8

$$$$
32677150
  -OEChem-02212016592D

 38 40  0     0  0  0  0  0  0999 V2000
    4.9641    3.6176    0.0000 O   0  0  0  0  0  0  0  0  0  0  0  0
    6.3301    0.5788    0.0000 O   0  0  0  0  0  0  0  0  0  0  0  0
    3.7320   -1.9212    0.0000 O   0  0  0  0  0  0  0  0  0  0  0  0
    2.8660   -0.4212    0.0000 O   0  0  0  0  0  0  0  0  0  0  0  0
    4.6551    2.6666    0.0000 N   0  0  0  0  0  0  0  0  0  0  0  0
    4.5981    0.5788    0.0000 N   0  0  0  0  0  0  0  0  0  0  0  0
    6.5519    4.4267    0.0000 C   0  0  0  0  0  0  0  0  0  0  0  0
    7.4654    4.8334    0.0000 C   0  0  0  0  0  0  0  0  0  0  0  0
    6.6564    5.4212    0.0000 C   0  0  0  0  0  0  0  0  0  0  0  0
    5.9641    3.6176    0.0000 C   0  0  0  0  0  0  0  0  0  0  0  0
    6.2731    2.6666    0.0000 C   0  0  0  0  0  0  0  0  0  0  0  0
    5.4641    2.0788    0.0000 C   0  0  0  0  0  0  0  0  0  0  0  0
    5.4641    1.0788    0.0000 C   0  0  0  0  0  0  0  0  0  0  0  0
    4.5981   -0.4212    0.0000 C   0  0  0  0  0  0  0  0  0  0  0  0
    2.8660   -2.4212    0.0000 C   0  0  0  0  0  0  0  0  0  0  0  0
    2.8660   -3.4212    0.0000 C   0  0  0  0  0  0  0  0  0  0  0  0
    3.7320   -0.9212    0.0000 C   0  0  0  0  0  0  0  0  0  0  0  0
    2.0000   -3.9212    0.0000 C   0  0  0  0  0  0  0  0  0  0  0  0
    3.7320   -3.9212    0.0000 C   0  0  0  0  0  0  0  0  0  0  0  0
    2.0000   -4.9212    0.0000 C   0  0  0  0  0  0  0  0  0  0  0  0
    3.7320   -4.9212    0.0000 C   0  0  0  0  0  0  0  0  0  0  0  0
    2.8660   -5.4212    0.0000 C   0  0  0  0  0  0  0  0  0  0  0  0
    5.9731    4.6489    0.0000 H   0  0  0  0  0  0  0  0  0  0  0  0
    7.8121    4.3194    0.0000 H   0  0  0  0  0  0  0  0  0  0  0  0
    7.9114    5.2641    0.0000 H   0  0  0  0  0  0  0  0  0  0  0  0
    6.9282    5.9784    0.0000 H   0  0  0  0  0  0  0  0  0  0  0  0
    6.0604    5.5921    0.0000 H   0  0  0  0  0  0  0  0  0  0  0  0
    6.8628    2.4750    0.0000 H   0  0  0  0  0  0  0  0  0  0  0  0
    4.0611    0.8888    0.0000 H   0  0  0  0  0  0  0  0  0  0  0  0
    4.8101   -1.0038    0.0000 H   0  0  0  0  0  0  0  0  0  0  0  0
    5.2087   -0.3135    0.0000 H   0  0  0  0  0  0  0  0  0  0  0  0
    2.6540   -1.8386    0.0000 H   0  0  0  0  0  0  0  0  0  0  0  0
    2.2554   -2.5288    0.0000 H   0  0  0  0  0  0  0  0  0  0  0  0
    1.4631   -3.6112    0.0000 H   0  0  0  0  0  0  0  0  0  0  0  0
    4.2690   -3.6112    0.0000 H   0  0  0  0  0  0  0  0  0  0  0  0
    1.4631   -5.2312    0.0000 H   0  0  0  0  0  0  0  0  0  0  0  0
    4.2690   -5.2312    0.0000 H   0  0  0  0  0  0  0  0  0  0  0  0
    2.8660   -6.0412    0.0000 H   0  0  0  0  0  0  0  0  0  0  0  0
  1  5  1  0  0  0  0
  1 10  1  0  0  0  0
  2 13  2  0  0  0  0
  3 15  1  0  0  0  0
  3 17  1  0  0  0  0
  4 17  2  0  0  0  0
  5 12  2  0  0  0  0
  6 13  1  0  0  0  0
  6 14  1  0  0  0  0
  6 29  1  0  0  0  0
  7  8  1  0  0  0  0
  7  9  1  0  0  0  0
  7 10  1  0  0  0  0
  7 23  1  0  0  0  0
  8  9  1  0  0  0  0
  8 24  1  0  0  0  0
  8 25  1  0  0  0  0
  9 26  1  0  0  0  0
  9 27  1  0  0  0  0
 10 11  2  0  0  0  0
 11 12  1  0  0  0  0
 11 28  1  0  0  0  0
 12 13  1  0  0  0  0
 14 17  1  0  0  0  0
 14 30  1  0  0  0  0
 14 31  1  0  0  0  0
 15 16  1  0  0  0  0
 15 32  1  0  0  0  0
 15 33  1  0  0  0  0
 16 18  2  0  0  0  0
 16 19  1  0  0  0  0
 18 20  1  0  0  0  0
 18 34  1  0  0  0  0
 19 21  2  0  0  0  0
 19 35  1  0  0  0  0
 20 22  2  0  0  0  0
 20 36  1  0  0  0  0
 21 22  1  0  0  0  0
 21 37  1  0  0  0  0
 22 38  1  0  0  0  0
M  END
> <PUBCHEM_COMPOUND_CID>
32677150

> <PUBCHEM_COMPOUND_CANONICALIZED>
1

> <PUBCHEM_CACTVS_COMPLEXITY>
405

> <PUBCHEM_CACTVS_HBOND_ACCEPTOR>
5

> <PUBCHEM_CACTVS_HBOND_DONOR>
1

> <PUBCHEM_CACTVS_ROTATABLE_BOND>
7

> <PUBCHEM_CACTVS_SUBSKEYS>
AAADceB7OAAAAAAAAAAAAAAAGAAAAWAAAAAwAAAAAAAAAAABwAAAHgAUAAAADQzhngYwjJLQBACpA6XyWgCCAAAmIgAomKG+bNoKZjqAtbuXMYhmxhmY6ce/yCCOAAAAAAAAAAAAAAAAAAAAAAAAAAAAAA==

> <PUBCHEM_IUPAC_OPENEYE_NAME>
benzyl 2-[(5-cyclopropylisoxazole-3-carbonyl)amino]acetate

> <PUBCHEM_IUPAC_CAS_NAME>
2-[[(5-cyclopropyl-3-isoxazolyl)-oxomethyl]amino]acetic acid (phenylmethyl) ester

> <PUBCHEM_IUPAC_NAME_MARKUP>
benzyl 2-[(5-cyclopropyl-1,2-oxazole-3-carbonyl)amino]acetate

> <PUBCHEM_IUPAC_NAME>
benzyl 2-[(5-cyclopropyl-1,2-oxazole-3-carbonyl)amino]acetate

> <PUBCHEM_IUPAC_SYSTEMATIC_NAME>
(phenylmethyl) 2-[(5-cyclopropyl-1,2-oxazol-3-yl)carbonylamino]ethanoate

> <PUBCHEM_IUPAC_TRADITIONAL_NAME>
2-[(5-cyclopropylisoxazole-3-carbonyl)amino]acetic acid benzyl ester

> <PUBCHEM_IUPAC_INCHI>
InChI=1S/C16H16N2O4/c19-15(21-10-11-4-2-1-3-5-11)9-17-16(20)13-8-14(22-18-13)12-6-7-12/h1-5,8,12H,6-7,9-10H2,(H,17,20)

> <PUBCHEM_IUPAC_INCHIKEY>
PCYMTVDPXZYAAI-UHFFFAOYSA-N

> <PUBCHEM_XLOGP3_AA>
2

> <PUBCHEM_EXACT_MASS>
300.111007

> <PUBCHEM_MOLECULAR_FORMULA>
C16H16N2O4

> <PUBCHEM_MOLECULAR_WEIGHT>
300.31

> <PUBCHEM_OPENEYE_CAN_SMILES>
C1CC1C2=CC(=NO2)C(=O)NCC(=O)OCC3=CC=CC=C3

> <PUBCHEM_OPENEYE_ISO_SMILES>
C1CC1C2=CC(=NO2)C(=O)NCC(=O)OCC3=CC=CC=C3

> <PUBCHEM_CACTVS_TPSA>
81.4

> <PUBCHEM_MONOISOTOPIC_WEIGHT>
300.111007

> <PUBCHEM_TOTAL_CHARGE>
0

> <PUBCHEM_HEAVY_ATOM_COUNT>
22

> <PUBCHEM_ATOM_DEF_STEREO_COUNT>
0

> <PUBCHEM_ATOM_UDEF_STEREO_COUNT>
0

> <PUBCHEM_BOND_DEF_STEREO_COUNT>
0

> <PUBCHEM_BOND_UDEF_STEREO_COUNT>
0

> <PUBCHEM_ISOTOPIC_ATOM_COUNT>
0

> <PUBCHEM_COMPONENT_COUNT>
1

> <PUBCHEM_CACTVS_TAUTO_COUNT>
-1

> <PUBCHEM_COORDINATE_TYPE>
1
5
255

> <PUBCHEM_BONDANNOTATIONS>
1  10  8
1  5  8
10  11  8
11  12  8
16  18  8
16  19  8
18  20  8
19  21  8
20  22  8
21  22  8
5  12  8

$$$$
37258247
  -OEChem-02212016592D

 40 41  0     0  0  0  0  0  0999 V2000
    4.4970    4.3965    0.0000 O   0  0  0  0  0  0  0  0  0  0  0  0
    2.0570   -2.5313    0.0000 O   0  0  0  0  0  0  0  0  0  0  0  0
    4.9483   -0.8757    0.0000 O   0  0  0  0  0  0  0  0  0  0  0  0
    2.9146    3.6920    0.0000 O   0  0  0  0  0  0  0  0  0  0  0  0
    3.5471    0.1424    0.0000 N   0  0  0  0  0  0  0  0  0  0  0  0
    2.3660   -1.5802    0.0000 N   0  0  0  0  0  0  0  0  0  0  0  0
    3.7281    1.8649    0.0000 C   0  0  0  0  0  0  0  0  0  0  0  0
    4.1349    0.9514    0.0000 C   0  0  0  0  0  0  0  0  0  0  0  0
    4.3159    2.6739    0.0000 C   0  0  0  0  0  0  0  0  0  0  0  0
    3.9538   -0.7712    0.0000 C   0  0  0  0  0  0  0  0  0  0  0  0
    3.9092    3.5875    0.0000 C   0  0  0  0  0  0  0  0  0  0  0  0
    3.3660   -1.5802    0.0000 C   0  0  0  0  0  0  0  0  0  0  0  0
    2.8660   -3.1190    0.0000 C   0  0  0  0  0  0  0  0  0  0  0  0
    3.6750   -2.5313    0.0000 C   0  0  0  0  0  0  0  0  0  0  0  0
    2.8660   -4.1190    0.0000 C   0  0  0  0  0  0  0  0  0  0  0  0
    2.0000   -4.6190    0.0000 C   0  0  0  0  0  0  0  0  0  0  0  0
    3.7320   -4.6190    0.0000 C   0  0  0  0  0  0  0  0  0  0  0  0
    4.0902    5.3100    0.0000 C   0  0  0  0  0  0  0  0  0  0  0  0
    2.0000   -5.6190    0.0000 C   0  0  0  0  0  0  0  0  0  0  0  0
    3.7320   -5.6190    0.0000 C   0  0  0  0  0  0  0  0  0  0  0  0
    2.8660   -6.1190    0.0000 C   0  0  0  0  0  0  0  0  0  0  0  0
    4.6780    6.1190    0.0000 C   0  0  0  0  0  0  0  0  0  0  0  0
    3.2974    2.3109    0.0000 H   0  0  0  0  0  0  0  0  0  0  0  0
    3.2141    1.5182    0.0000 H   0  0  0  0  0  0  0  0  0  0  0  0
    4.5656    0.5054    0.0000 H   0  0  0  0  0  0  0  0  0  0  0  0
    4.6489    1.2981    0.0000 H   0  0  0  0  0  0  0  0  0  0  0  0
    4.7466    2.2279    0.0000 H   0  0  0  0  0  0  0  0  0  0  0  0
    4.8299    3.0206    0.0000 H   0  0  0  0  0  0  0  0  0  0  0  0
    2.9305    0.2072    0.0000 H   0  0  0  0  0  0  0  0  0  0  0  0
    4.2647   -2.7229    0.0000 H   0  0  0  0  0  0  0  0  0  0  0  0
    1.4631   -4.3090    0.0000 H   0  0  0  0  0  0  0  0  0  0  0  0
    4.2690   -4.3090    0.0000 H   0  0  0  0  0  0  0  0  0  0  0  0
    3.6595    5.7560    0.0000 H   0  0  0  0  0  0  0  0  0  0  0  0
    3.5762    4.9633    0.0000 H   0  0  0  0  0  0  0  0  0  0  0  0
    1.4631   -5.9290    0.0000 H   0  0  0  0  0  0  0  0  0  0  0  0
    4.2690   -5.9290    0.0000 H   0  0  0  0  0  0  0  0  0  0  0  0
    2.8660   -6.7390    0.0000 H   0  0  0  0  0  0  0  0  0  0  0  0
    5.1796    5.7546    0.0000 H   0  0  0  0  0  0  0  0  0  0  0  0
    5.0424    6.6206    0.0000 H   0  0  0  0  0  0  0  0  0  0  0  0
    4.1764    6.4835    0.0000 H   0  0  0  0  0  0  0  0  0  0  0  0
  1 11  1  0  0  0  0
  1 18  1  0  0  0  0
  2  6  1  0  0  0  0
  2 13  1  0  0  0  0
  3 10  2  0  0  0  0
  4 11  2  0  0  0  0
  5  8  1  0  0  0  0
  5 10  1  0  0  0  0
  5 29  1  0  0  0  0
  6 12  2  0  0  0  0
  7  8  1  0  0  0  0
  7  9  1  0  0  0  0
  7 23  1  0  0  0  0
  7 24  1  0  0  0  0
  8 25  1  0  0  0  0
  8 26  1  0  0  0  0
  9 11  1  0  0  0  0
  9 27  1  0  0  0  0
  9 28  1  0  0  0  0
 10 12  1  0  0  0  0
 12 14  1  0  0  0  0
 13 14  2  0  0  0  0
 13 15  1  0  0  0  0
 14 30  1  0  0  0  0
 15 16  2  0  0  0  0
 15 17  1  0  0  0  0
 16 19  1  0  0  0  0
 16 31  1  0  0  0  0
 17 20  2  0  0  0  0
 17 32  1  0  0  0  0
 18 22  1  0  0  0  0
 18 33  1  0  0  0  0
 18 34  1  0  0  0  0
 19 21  2  0  0  0  0
 19 35  1  0  0  0  0
 20 21  1  0  0  0  0
 20 36  1  0  0  0  0
 21 37  1  0  0  0  0
 22 38  1  0  0  0  0
 22 39  1  0  0  0  0
 22 40  1  0  0  0  0
M  END
> <PUBCHEM_COMPOUND_CID>
37258247

> <PUBCHEM_COMPOUND_CANONICALIZED>
1

> <PUBCHEM_CACTVS_COMPLEXITY>
369

> <PUBCHEM_CACTVS_HBOND_ACCEPTOR>
5

> <PUBCHEM_CACTVS_HBOND_DONOR>
1

> <PUBCHEM_CACTVS_ROTATABLE_BOND>
8

> <PUBCHEM_CACTVS_SUBSKEYS>
AAADceB7OAAAAAAAAAAAAAAAAAAAAWAAAAAwAAAAAAAAAAABwAAAHgAUAAAADAzhngYyjJLQBACpA6XyWgCCAAAmIgAomKG+bNoIZjqAlZOWMYhm1hmIyce/yKCOAAAAAAAAAAAAAAAAAAAAAAAAAAAAAA==

> <PUBCHEM_IUPAC_OPENEYE_NAME>
ethyl 4-[(5-phenylisoxazole-3-carbonyl)amino]butanoate

> <PUBCHEM_IUPAC_CAS_NAME>
4-[[oxo-(5-phenyl-3-isoxazolyl)methyl]amino]butanoic acid ethyl ester

> <PUBCHEM_IUPAC_NAME_MARKUP>
ethyl 4-[(5-phenyl-1,2-oxazole-3-carbonyl)amino]butanoate

> <PUBCHEM_IUPAC_NAME>
ethyl 4-[(5-phenyl-1,2-oxazole-3-carbonyl)amino]butanoate

> <PUBCHEM_IUPAC_SYSTEMATIC_NAME>
ethyl 4-[(5-phenyl-1,2-oxazol-3-yl)carbonylamino]butanoate

> <PUBCHEM_IUPAC_TRADITIONAL_NAME>
4-[(5-phenylisoxazole-3-carbonyl)amino]butyric acid ethyl ester

> <PUBCHEM_IUPAC_INCHI>
InChI=1S/C16H18N2O4/c1-2-21-15(19)9-6-10-17-16(20)13-11-14(22-18-13)12-7-4-3-5-8-12/h3-5,7-8,11H,2,6,9-10H2,1H3,(H,17,20)

> <PUBCHEM_IUPAC_INCHIKEY>
ZREYQFILLVYYOP-UHFFFAOYSA-N

> <PUBCHEM_XLOGP3_AA>
2.2

> <PUBCHEM_EXACT_MASS>
302.126657

> <PUBCHEM_MOLECULAR_FORMULA>
C16H18N2O4

> <PUBCHEM_MOLECULAR_WEIGHT>
302.32

> <PUBCHEM_OPENEYE_CAN_SMILES>
CCOC(=O)CCCNC(=O)C1=NOC(=C1)C2=CC=CC=C2

> <PUBCHEM_OPENEYE_ISO_SMILES>
CCOC(=O)CCCNC(=O)C1=NOC(=C1)C2=CC=CC=C2

> <PUBCHEM_CACTVS_TPSA>
81.4

> <PUBCHEM_MONOISOTOPIC_WEIGHT>
302.126657

> <PUBCHEM_TOTAL_CHARGE>
0

> <PUBCHEM_HEAVY_ATOM_COUNT>
22

> <PUBCHEM_ATOM_DEF_STEREO_COUNT>
0

> <PUBCHEM_ATOM_UDEF_STEREO_COUNT>
0

> <PUBCHEM_BOND_DEF_STEREO_COUNT>
0

> <PUBCHEM_BOND_UDEF_STEREO_COUNT>
0

> <PUBCHEM_ISOTOPIC_ATOM_COUNT>
0

> <PUBCHEM_COMPONENT_COUNT>
1

> <PUBCHEM_CACTVS_TAUTO_COUNT>
-1

> <PUBCHEM_COORDINATE_TYPE>
1
5
255

> <PUBCHEM_BONDANNOTATIONS>
12  14  8
13  14  8
15  16  8
15  17  8
16  19  8
17  20  8
19  21  8
2  13  8
2  6  8
20  21  8
6  12  8

$$$$
42627499
  -OEChem-02212016592D

 99101  0     1  0  0  0  0  0999 V2000
   13.3364    2.3557    0.0000 O   0  0  0  0  0  0  0  0  0  0  0  0
   10.5109    1.6920    0.0000 O   0  0  0  0  0  0  0  0  0  0  0  0
   10.5109   -2.3080    0.0000 O   0  0  0  0  0  0  0  0  0  0  0  0
    9.6448    2.1920    0.0000 O   0  0  0  0  0  0  0  0  0  0  0  0
    9.6448   -0.8080    0.0000 O   0  0  0  0  0  0  0  0  0  0  0  0
    7.0468    4.6920    0.0000 O   0  0  0  0  0  0  0  0  0  0  0  0
    4.4487    2.1920    0.0000 O   0  0  0  0  0  0  0  0  0  0  0  0
    2.0000    4.0284    0.0000 O   0  0  0  0  0  0  0  0  0  0  0  0
   12.2429    1.6920    0.0000 N   0  0  0  0  0  0  0  0  0  0  0  0
   15.0577    1.8944    0.0000 N   0  0  0  0  0  0  0  0  0  0  0  0
   10.5109    3.6920    0.0000 N   0  0  0  0  0  0  0  0  0  0  0  0
    7.9128    3.1920    0.0000 N   0  0  0  0  0  0  0  0  0  0  0  0
    5.3147    3.6920    0.0000 N   0  0  0  0  0  0  0  0  0  0  0  0
    2.6691    3.2853    0.0000 N   0  0  0  0  0  0  0  0  0  0  0  0
   13.9750    0.6920    0.0000 C   0  0  2  0  0  0  0  0  0  0  0  0
   13.1090    0.1920    0.0000 C   0  0  0  0  0  0  0  0  0  0  0  0
   12.2429    0.6920    0.0000 C   0  0  1  0  0  0  0  0  0  0  0  0
   14.8885    0.2853    0.0000 C   0  0  0  0  0  0  0  0  0  0  0  0
   15.5577    1.0284    0.0000 C   0  0  0  0  0  0  0  0  0  0  0  0
   11.3769    0.1920    0.0000 C   0  0  0  0  0  0  0  0  0  0  0  0
   14.0795    1.6865    0.0000 C   0  0  0  0  0  0  0  0  0  0  0  0
   11.3769    3.1920    0.0000 C   0  0  2  0  0  0  0  0  0  0  0  0
   11.3769    2.1920    0.0000 C   0  0  0  0  0  0  0  0  0  0  0  0
   11.3769   -0.8080    0.0000 C   0  0  0  0  0  0  0  0  0  0  0  0
   12.2429    3.6920    0.0000 C   0  0  0  0  0  0  0  0  0  0  0  0
   12.2429    4.6920    0.0000 C   0  0  0  0  0  0  0  0  0  0  0  0
    8.7788    3.6920    0.0000 C   0  0  2  0  0  0  0  0  0  0  0  0
    9.6448    3.1920    0.0000 C   0  0  0  0  0  0  0  0  0  0  0  0
    8.7788    4.6920    0.0000 C   0  0  0  0  0  0  0  0  0  0  0  0
   10.5109   -1.3080    0.0000 C   0  0  0  0  0  0  0  0  0  0  0  0
   13.1090    5.1920    0.0000 C   0  0  0  0  0  0  0  0  0  0  0  0
   11.3769    5.1920    0.0000 C   0  0  0  0  0  0  0  0  0  0  0  0
    7.9128    5.1920    0.0000 C   0  0  0  0  0  0  0  0  0  0  0  0
    9.6448    5.1920    0.0000 C   0  0  0  0  0  0  0  0  0  0  0  0
    7.0468    3.6920    0.0000 C   0  0  0  0  0  0  0  0  0  0  0  0
    6.1808    3.1920    0.0000 C   0  0  2  0  0  0  0  0  0  0  0  0
    9.6448   -2.8080    0.0000 C   0  0  0  0  0  0  0  0  0  0  0  0
    6.1808    2.1920    0.0000 C   0  0  0  0  0  0  0  0  0  0  0  0
    9.6448   -3.8080    0.0000 C   0  0  0  0  0  0  0  0  0  0  0  0
    4.4487    3.1920    0.0000 C   0  0  0  0  0  0  0  0  0  0  0  0
    8.7788   -4.3080    0.0000 C   0  0  0  0  0  0  0  0  0  0  0  0
   10.5109   -4.3080    0.0000 C   0  0  0  0  0  0  0  0  0  0  0  0
    3.5827    3.6920    0.0000 C   0  0  0  0  0  0  0  0  0  0  0  0
    8.7788   -5.3080    0.0000 C   0  0  0  0  0  0  0  0  0  0  0  0
   10.5109   -5.3080    0.0000 C   0  0  0  0  0  0  0  0  0  0  0  0
    9.6448   -5.8080    0.0000 C   0  0  0  0  0  0  0  0  0  0  0  0
    3.4782    4.6865    0.0000 C   0  0  0  0  0  0  0  0  0  0  0  0
    2.5000    4.8944    0.0000 C   0  0  0  0  0  0  0  0  0  0  0  0
    2.0933    5.8080    0.0000 C   0  0  0  0  0  0  0  0  0  0  0  0
   14.0074    0.0729    0.0000 H   0  0  0  0  0  0  0  0  0  0  0  0
   12.7104   -0.2829    0.0000 H   0  0  0  0  0  0  0  0  0  0  0  0
   13.5075   -0.2829    0.0000 H   0  0  0  0  0  0  0  0  0  0  0  0
   12.7799    1.0020    0.0000 H   0  0  0  0  0  0  0  0  0  0  0  0
   14.5785   -0.2517    0.0000 H   0  0  0  0  0  0  0  0  0  0  0  0
   15.3901   -0.0792    0.0000 H   0  0  0  0  0  0  0  0  0  0  0  0
   15.9725    0.5677    0.0000 H   0  0  0  0  0  0  0  0  0  0  0  0
   16.0592    1.3928    0.0000 H   0  0  0  0  0  0  0  0  0  0  0  0
   11.1649    0.7746    0.0000 H   0  0  0  0  0  0  0  0  0  0  0  0
   10.7663    0.0843    0.0000 H   0  0  0  0  0  0  0  0  0  0  0  0
   12.7799    2.0020    0.0000 H   0  0  0  0  0  0  0  0  0  0  0  0
   15.3098    2.4608    0.0000 H   0  0  0  0  0  0  0  0  0  0  0  0
   10.8400    2.8820    0.0000 H   0  0  0  0  0  0  0  0  0  0  0  0
   11.5890   -1.3906    0.0000 H   0  0  0  0  0  0  0  0  0  0  0  0
   11.9875   -0.7003    0.0000 H   0  0  0  0  0  0  0  0  0  0  0  0
   12.4550    3.1094    0.0000 H   0  0  0  0  0  0  0  0  0  0  0  0
   12.8535    3.7997    0.0000 H   0  0  0  0  0  0  0  0  0  0  0  0
   12.7799    4.3820    0.0000 H   0  0  0  0  0  0  0  0  0  0  0  0
   10.5109    4.3120    0.0000 H   0  0  0  0  0  0  0  0  0  0  0  0
    8.2419    4.0020    0.0000 H   0  0  0  0  0  0  0  0  0  0  0  0
    9.3158    4.3820    0.0000 H   0  0  0  0  0  0  0  0  0  0  0  0
   13.4190    4.6551    0.0000 H   0  0  0  0  0  0  0  0  0  0  0  0
   13.6459    5.5020    0.0000 H   0  0  0  0  0  0  0  0  0  0  0  0
   12.7990    5.7290    0.0000 H   0  0  0  0  0  0  0  0  0  0  0  0
   11.6869    5.7290    0.0000 H   0  0  0  0  0  0  0  0  0  0  0  0
   10.8400    5.5020    0.0000 H   0  0  0  0  0  0  0  0  0  0  0  0
   11.0669    4.6551    0.0000 H   0  0  0  0  0  0  0  0  0  0  0  0
    7.9128    2.5720    0.0000 H   0  0  0  0  0  0  0  0  0  0  0  0
    8.2228    5.7290    0.0000 H   0  0  0  0  0  0  0  0  0  0  0  0
    7.3759    5.5020    0.0000 H   0  0  0  0  0  0  0  0  0  0  0  0
    7.6028    4.6551    0.0000 H   0  0  0  0  0  0  0  0  0  0  0  0
    9.9548    4.6551    0.0000 H   0  0  0  0  0  0  0  0  0  0  0  0
   10.1818    5.5020    0.0000 H   0  0  0  0  0  0  0  0  0  0  0  0
    9.3348    5.7290    0.0000 H   0  0  0  0  0  0  0  0  0  0  0  0
    6.1808    3.8120    0.0000 H   0  0  0  0  0  0  0  0  0  0  0  0
    9.4328   -2.2254    0.0000 H   0  0  0  0  0  0  0  0  0  0  0  0
    9.0343   -2.9156    0.0000 H   0  0  0  0  0  0  0  0  0  0  0  0
    5.5608    2.1920    0.0000 H   0  0  0  0  0  0  0  0  0  0  0  0
    6.1808    1.5720    0.0000 H   0  0  0  0  0  0  0  0  0  0  0  0
    6.8008    2.1920    0.0000 H   0  0  0  0  0  0  0  0  0  0  0  0
    5.3147    4.3120    0.0000 H   0  0  0  0  0  0  0  0  0  0  0  0
    8.2419   -3.9980    0.0000 H   0  0  0  0  0  0  0  0  0  0  0  0
   11.0478   -3.9980    0.0000 H   0  0  0  0  0  0  0  0  0  0  0  0
    8.2419   -5.6180    0.0000 H   0  0  0  0  0  0  0  0  0  0  0  0
   11.0478   -5.6180    0.0000 H   0  0  0  0  0  0  0  0  0  0  0  0
    9.6448   -6.4280    0.0000 H   0  0  0  0  0  0  0  0  0  0  0  0
    3.9389    5.1014    0.0000 H   0  0  0  0  0  0  0  0  0  0  0  0
    2.6597    6.0602    0.0000 H   0  0  0  0  0  0  0  0  0  0  0  0
    1.8411    6.3744    0.0000 H   0  0  0  0  0  0  0  0  0  0  0  0
    1.5269    5.5558    0.0000 H   0  0  0  0  0  0  0  0  0  0  0  0
  1 21  2  0  0  0  0
  2 23  2  0  0  0  0
  3 30  1  0  0  0  0
  3 37  1  0  0  0  0
  4 28  2  0  0  0  0
  5 30  2  0  0  0  0
  6 35  2  0  0  0  0
  7 40  2  0  0  0  0
  8 14  1  0  0  0  0
  8 48  1  0  0  0  0
 17  9  1  1  0  0  0
  9 23  1  0  0  0  0
  9 60  1  0  0  0  0
 10 19  1  0  0  0  0
 10 21  1  0  0  0  0
 10 61  1  0  0  0  0
 22 11  1  1  0  0  0
 11 28  1  0  0  0  0
 11 68  1  0  0  0  0
 27 12  1  1  0  0  0
 12 35  1  0  0  0  0
 12 77  1  0  0  0  0
 36 13  1  6  0  0  0
 13 40  1  0  0  0  0
 13 90  1  0  0  0  0
 14 43  2  0  0  0  0
 15 16  1  1  0  0  0
 15 18  1  0  0  0  0
 15 21  1  0  0  0  0
 15 50  1  0  0  0  0
 16 17  1  0  0  0  0
 16 51  1  0  0  0  0
 16 52  1  0  0  0  0
 17 20  1  0  0  0  0
 17 53  1  0  0  0  0
 18 19  1  0  0  0  0
 18 54  1  0  0  0  0
 18 55  1  0  0  0  0
 19 56  1  0  0  0  0
 19 57  1  0  0  0  0
 20 24  1  0  0  0  0
 20 58  1  0  0  0  0
 20 59  1  0  0  0  0
 22 23  1  0  0  0  0
 22 25  1  0  0  0  0
 22 62  1  0  0  0  0
 24 30  1  0  0  0  0
 24 63  1  0  0  0  0
 24 64  1  0  0  0  0
 25 26  1  0  0  0  0
 25 65  1  0  0  0  0
 25 66  1  0  0  0  0
 26 31  1  0  0  0  0
 26 32  1  0  0  0  0
 26 67  1  0  0  0  0
 27 28  1  0  0  0  0
 27 29  1  0  0  0  0
 27 69  1  0  0  0  0
 29 33  1  0  0  0  0
 29 34  1  0  0  0  0
 29 70  1  0  0  0  0
 31 71  1  0  0  0  0
 31 72  1  0  0  0  0
 31 73  1  0  0  0  0
 32 74  1  0  0  0  0
 32 75  1  0  0  0  0
 32 76  1  0  0  0  0
 33 78  1  0  0  0  0
 33 79  1  0  0  0  0
 33 80  1  0  0  0  0
 34 81  1  0  0  0  0
 34 82  1  0  0  0  0
 34 83  1  0  0  0  0
 35 36  1  0  0  0  0
 36 38  1  0  0  0  0
 36 84  1  0  0  0  0
 37 39  1  0  0  0  0
 37 85  1  0  0  0  0
 37 86  1  0  0  0  0
 38 87  1  0  0  0  0
 38 88  1  0  0  0  0
 38 89  1  0  0  0  0
 39 41  2  0  0  0  0
 39 42  1  0  0  0  0
 40 43  1  0  0  0  0
 41 44  1  0  0  0  0
 41 91  1  0  0  0  0
 42 45  2  0  0  0  0
 42 92  1  0  0  0  0
 43 47  1  0  0  0  0
 44 46  2  0  0  0  0
 44 93  1  0  0  0  0
 45 46  1  0  0  0  0
 45 94  1  0  0  0  0
 46 95  1  0  0  0  0
 47 48  2  0  0  0  0
 47 96  1  0  0  0  0
 48 49  1  0  0  0  0
 49 97  1  0  0  0  0
 49 98  1  0  0  0  0
 49 99  1  0  0  0  0
M  END
> <PUBCHEM_COMPOUND_CID>
42627499

> <PUBCHEM_COMPOUND_CANONICALIZED>
1

> <PUBCHEM_CACTVS_COMPLEXITY>
1140

> <PUBCHEM_CACTVS_HBOND_ACCEPTOR>
9

> <PUBCHEM_CACTVS_HBOND_DONOR>
5

> <PUBCHEM_CACTVS_ROTATABLE_BOND>
19

> <PUBCHEM_CACTVS_SUBSKEYS>
AAADcfB/vAAAAAAAAAAAAAAAAAAAAWLAAAAwAAAAAAAAAAABwAAAHgAUAAAADSzhngYyjJLQBACpA6XyWgCCAAAmIgAomKG+bNoIZjqAtbuWMYhm1hmI6ce/yOCOAAAAAAAAAAAAAAAAAAAAAAAAAAAAAA==

> <PUBCHEM_IUPAC_OPENEYE_NAME>
benzyl (4R)-4-[[(2S)-4-methyl-2-[[(2S)-3-methyl-2-[[(2S)-2-[(5-methylisoxazole-3-carbonyl)amino]propanoyl]amino]butanoyl]amino]pentanoyl]amino]-5-[(3S)-2-oxopyrrolidin-3-yl]pentanoate

> <PUBCHEM_IUPAC_CAS_NAME>
(4R)-4-[[(2S)-4-methyl-2-[[(2S)-3-methyl-2-[[(2S)-2-[[(5-methyl-3-isoxazolyl)-oxomethyl]amino]-1-oxopropyl]amino]-1-oxobutyl]amino]-1-oxopentyl]amino]-5-[(3S)-2-oxo-3-pyrrolidinyl]pentanoic acid (phenylmethyl) ester

> <PUBCHEM_IUPAC_NAME_MARKUP>
benzyl (4<I>R</I>)-4-[[(2<I>S</I>)-4-methyl-2-[[(2<I>S</I>)-3-methyl-2-[[(2<I>S</I>)-2-[(5-methyl-1,2-oxazole-3-carbonyl)amino]propanoyl]amino]butanoyl]amino]pentanoyl]amino]-5-[(3<I>S</I>)-2-oxopyrrolidin-3-yl]pentanoate

> <PUBCHEM_IUPAC_NAME>
benzyl (4R)-4-[[(2S)-4-methyl-2-[[(2S)-3-methyl-2-[[(2S)-2-[(5-methyl-1,2-oxazole-3-carbonyl)amino]propanoyl]amino]butanoyl]amino]pentanoyl]amino]-5-[(3S)-2-oxopyrrolidin-3-yl]pentanoate

> <PUBCHEM_IUPAC_SYSTEMATIC_NAME>
(phenylmethyl) (4R)-4-[[(2S)-4-methyl-2-[[(2S)-3-methyl-2-[[(2S)-2-[(5-methyl-1,2-oxazol-3-yl)carbonylamino]propanoyl]amino]butanoyl]amino]pentanoyl]amino]-5-[(3S)-2-oxidanylidenepyrrolidin-3-yl]pentanoate

> <PUBCHEM_IUPAC_TRADITIONAL_NAME>
(4R)-5-[(3S)-2-ketopyrrolidin-3-yl]-4-[[(2S)-4-methyl-2-[[(2S)-3-methyl-2-[[(2S)-2-[(5-methylisoxazole-3-carbonyl)amino]propanoyl]amino]butanoyl]amino]pentanoyl]amino]valeric acid benzyl ester

> <PUBCHEM_IUPAC_INCHI>
InChI=1S/C35H50N6O8/c1-20(2)16-27(39-35(47)30(21(3)4)40-31(43)23(6)37-34(46)28-17-22(5)49-41-28)33(45)38-26(18-25-14-15-36-32(25)44)12-13-29(42)48-19-24-10-8-7-9-11-24/h7-11,17,20-21,23,25-27,30H,12-16,18-19H2,1-6H3,(H,36,44)(H,37,46)(H,38,45)(H,39,47)(H,40,43)/t23-,25-,26+,27-,30-/m0/s1

> <PUBCHEM_IUPAC_INCHIKEY>
SWXGTZNJNNYPBX-RQTMNGPMSA-N

> <PUBCHEM_XLOGP3_AA>
3.4

> <PUBCHEM_EXACT_MASS>
682.369013

> <PUBCHEM_MOLECULAR_FORMULA>
C35H50N6O8

> <PUBCHEM_MOLECULAR_WEIGHT>
682.8

> <PUBCHEM_OPENEYE_CAN_SMILES>
CC1=CC(=NO1)C(=O)NC(C)C(=O)NC(C(C)C)C(=O)NC(CC(C)C)C(=O)NC(CCC(=O)OCC2=CC=CC=C2)CC3CCNC3=O

> <PUBCHEM_OPENEYE_ISO_SMILES>
CC1=CC(=NO1)C(=O)N[C@@H](C)C(=O)N[C@@H](C(C)C)C(=O)N[C@@H](CC(C)C)C(=O)N[C@H](CCC(=O)OCC2=CC=CC=C2)C[C@@H]3CCNC3=O

> <PUBCHEM_CACTVS_TPSA>
198

> <PUBCHEM_MONOISOTOPIC_WEIGHT>
682.369013

> <PUBCHEM_TOTAL_CHARGE>
0

> <PUBCHEM_HEAVY_ATOM_COUNT>
49

> <PUBCHEM_ATOM_DEF_STEREO_COUNT>
5

> <PUBCHEM_ATOM_UDEF_STEREO_COUNT>
0

> <PUBCHEM_BOND_DEF_STEREO_COUNT>
0

> <PUBCHEM_BOND_UDEF_STEREO_COUNT>
0

> <PUBCHEM_ISOTOPIC_ATOM_COUNT>
0

> <PUBCHEM_COMPONENT_COUNT>
1

> <PUBCHEM_CACTVS_TAUTO_COUNT>
-1

> <PUBCHEM_COORDINATE_TYPE>
1
5
255

> <PUBCHEM_BONDANNOTATIONS>
22  11  5
27  12  5
36  13  6
14  43  8
15  16  5
39  41  8
39  42  8
41  44  8
42  45  8
43  47  8
44  46  8
45  46  8
47  48  8
8  14  8
8  48  8
17  9  5

$$$$
44342479
  -OEChem-02212016592D

 85 87  0     1  0  0  0  0  0999 V2000
    5.4641   -5.2702    0.0000 F   0  0  0  0  0  0  0  0  0  0  0  0
    4.5700    3.5086    0.0000 O   0  0  0  0  0  0  0  0  0  0  0  0
    7.1962    0.7298    0.0000 O   0  0  0  0  0  0  0  0  0  0  0  0
    8.0622    0.2298    0.0000 O   0  0  0  0  0  0  0  0  0  0  0  0
   10.6603   -2.2702    0.0000 O   0  0  0  0  0  0  0  0  0  0  0  0
    2.8660    3.2298    0.0000 O   0  0  0  0  0  0  0  0  0  0  0  0
    2.0000    1.7298    0.0000 O   0  0  0  0  0  0  0  0  0  0  0  0
   12.6090    0.4322    0.0000 O   0  0  0  0  0  0  0  0  0  0  0  0
    5.8301    4.7686    0.0000 N   0  0  0  0  0  0  0  0  0  0  0  0
    5.4641    0.7298    0.0000 N   0  0  0  0  0  0  0  0  0  0  0  0
    9.7942   -0.7702    0.0000 N   0  0  0  0  0  0  0  0  0  0  0  0
   11.6308    0.2243    0.0000 N   0  0  0  0  0  0  0  0  0  0  0  0
    6.3301    3.2298    0.0000 C   0  0  2  0  0  0  0  0  0  0  0  0
    6.3301    2.2298    0.0000 C   0  0  0  0  0  0  0  0  0  0  0  0
    7.1391    3.8176    0.0000 C   0  0  0  0  0  0  0  0  0  0  0  0
    5.4641    1.7298    0.0000 C   0  0  1  0  0  0  0  0  0  0  0  0
    6.8301    4.7686    0.0000 C   0  0  0  0  0  0  0  0  0  0  0  0
    5.5211    3.8176    0.0000 C   0  0  0  0  0  0  0  0  0  0  0  0
    6.3301   -0.7702    0.0000 C   0  0  2  0  0  0  0  0  0  0  0  0
    7.1962   -1.2702    0.0000 C   0  0  0  0  0  0  0  0  0  0  0  0
    8.9282   -1.2702    0.0000 C   0  0  1  0  0  0  0  0  0  0  0  0
    6.3301    0.2298    0.0000 C   0  0  0  0  0  0  0  0  0  0  0  0
    5.4641   -1.2702    0.0000 C   0  0  0  0  0  0  0  0  0  0  0  0
    8.9282   -2.2702    0.0000 C   0  0  0  0  0  0  0  0  0  0  0  0
    8.0622   -0.7702    0.0000 C   0  0  0  0  0  0  0  0  0  0  0  0
    4.5981    2.2298    0.0000 C   0  0  0  0  0  0  0  0  0  0  0  0
    8.0622   -2.7702    0.0000 C   0  0  0  0  0  0  0  0  0  0  0  0
    5.4641   -2.2702    0.0000 C   0  0  0  0  0  0  0  0  0  0  0  0
    8.0622   -3.7702    0.0000 C   0  0  0  0  0  0  0  0  0  0  0  0
    7.1962   -2.2702    0.0000 C   0  0  0  0  0  0  0  0  0  0  0  0
    3.7320    1.7298    0.0000 C   0  0  0  0  0  0  0  0  0  0  0  0
    6.3301   -2.7702    0.0000 C   0  0  0  0  0  0  0  0  0  0  0  0
    4.5981   -2.7702    0.0000 C   0  0  0  0  0  0  0  0  0  0  0  0
   10.6603   -1.2702    0.0000 C   0  0  0  0  0  0  0  0  0  0  0  0
    2.8660    2.2298    0.0000 C   0  0  0  0  0  0  0  0  0  0  0  0
    6.3301   -3.7702    0.0000 C   0  0  0  0  0  0  0  0  0  0  0  0
    4.5981   -3.7702    0.0000 C   0  0  0  0  0  0  0  0  0  0  0  0
   11.5263   -0.7702    0.0000 C   0  0  0  0  0  0  0  0  0  0  0  0
    5.4641   -4.2702    0.0000 C   0  0  0  0  0  0  0  0  0  0  0  0
   12.4398   -1.1770    0.0000 C   0  0  0  0  0  0  0  0  0  0  0  0
   13.1090   -0.4338    0.0000 C   0  0  0  0  0  0  0  0  0  0  0  0
    2.0000    3.7298    0.0000 C   0  0  0  0  0  0  0  0  0  0  0  0
   14.1035   -0.5383    0.0000 C   0  0  0  0  0  0  0  0  0  0  0  0
    2.0000    4.7298    0.0000 C   0  0  0  0  0  0  0  0  0  0  0  0
    6.8826    2.9483    0.0000 H   0  0  0  0  0  0  0  0  0  0  0  0
    6.5422    1.6472    0.0000 H   0  0  0  0  0  0  0  0  0  0  0  0
    6.9407    2.3374    0.0000 H   0  0  0  0  0  0  0  0  0  0  0  0
    7.4491    3.2806    0.0000 H   0  0  0  0  0  0  0  0  0  0  0  0
    7.7055    4.0698    0.0000 H   0  0  0  0  0  0  0  0  0  0  0  0
    6.0010    1.4198    0.0000 H   0  0  0  0  0  0  0  0  0  0  0  0
    7.4366    4.8975    0.0000 H   0  0  0  0  0  0  0  0  0  0  0  0
    6.7653    5.3852    0.0000 H   0  0  0  0  0  0  0  0  0  0  0  0
    6.8671   -0.4602    0.0000 H   0  0  0  0  0  0  0  0  0  0  0  0
    5.4657    5.2702    0.0000 H   0  0  0  0  0  0  0  0  0  0  0  0
    6.7976   -1.7452    0.0000 H   0  0  0  0  0  0  0  0  0  0  0  0
    7.5947   -1.7452    0.0000 H   0  0  0  0  0  0  0  0  0  0  0  0
    4.9272    0.4198    0.0000 H   0  0  0  0  0  0  0  0  0  0  0  0
    9.4651   -1.5802    0.0000 H   0  0  0  0  0  0  0  0  0  0  0  0
    5.2520   -0.6876    0.0000 H   0  0  0  0  0  0  0  0  0  0  0  0
    4.8535   -1.3779    0.0000 H   0  0  0  0  0  0  0  0  0  0  0  0
    9.1403   -2.8528    0.0000 H   0  0  0  0  0  0  0  0  0  0  0  0
    9.5388   -2.1626    0.0000 H   0  0  0  0  0  0  0  0  0  0  0  0
    4.5981    2.8498    0.0000 H   0  0  0  0  0  0  0  0  0  0  0  0
    8.0622   -2.1502    0.0000 H   0  0  0  0  0  0  0  0  0  0  0  0
    9.7942   -0.1502    0.0000 H   0  0  0  0  0  0  0  0  0  0  0  0
    7.4422   -3.7702    0.0000 H   0  0  0  0  0  0  0  0  0  0  0  0
    8.0622   -4.3902    0.0000 H   0  0  0  0  0  0  0  0  0  0  0  0
    8.6822   -3.7702    0.0000 H   0  0  0  0  0  0  0  0  0  0  0  0
    7.5062   -1.7333    0.0000 H   0  0  0  0  0  0  0  0  0  0  0  0
    6.6592   -1.9602    0.0000 H   0  0  0  0  0  0  0  0  0  0  0  0
    6.8862   -2.8072    0.0000 H   0  0  0  0  0  0  0  0  0  0  0  0
    3.7320    1.1098    0.0000 H   0  0  0  0  0  0  0  0  0  0  0  0
    6.8671   -2.4602    0.0000 H   0  0  0  0  0  0  0  0  0  0  0  0
    4.0611   -2.4602    0.0000 H   0  0  0  0  0  0  0  0  0  0  0  0
    6.8671   -4.0802    0.0000 H   0  0  0  0  0  0  0  0  0  0  0  0
    4.0611   -4.0802    0.0000 H   0  0  0  0  0  0  0  0  0  0  0  0
   12.5687   -1.7834    0.0000 H   0  0  0  0  0  0  0  0  0  0  0  0
    1.3894    3.8374    0.0000 H   0  0  0  0  0  0  0  0  0  0  0  0
    1.7880    3.1472    0.0000 H   0  0  0  0  0  0  0  0  0  0  0  0
   14.0387   -1.1549    0.0000 H   0  0  0  0  0  0  0  0  0  0  0  0
   14.7201   -0.6031    0.0000 H   0  0  0  0  0  0  0  0  0  0  0  0
   14.1683    0.0783    0.0000 H   0  0  0  0  0  0  0  0  0  0  0  0
    2.6200    4.7298    0.0000 H   0  0  0  0  0  0  0  0  0  0  0  0
    2.0000    5.3498    0.0000 H   0  0  0  0  0  0  0  0  0  0  0  0
    1.3800    4.7298    0.0000 H   0  0  0  0  0  0  0  0  0  0  0  0
  1 39  1  0  0  0  0
  2 18  2  0  0  0  0
  3 22  2  0  0  0  0
  4 25  2  0  0  0  0
  5 34  2  0  0  0  0
  6 35  1  0  0  0  0
  6 42  1  0  0  0  0
  7 35  2  0  0  0  0
  8 12  1  0  0  0  0
  8 41  1  0  0  0  0
  9 17  1  0  0  0  0
  9 18  1  0  0  0  0
  9 54  1  0  0  0  0
 16 10  1  6  0  0  0
 10 22  1  0  0  0  0
 10 57  1  0  0  0  0
 21 11  1  1  0  0  0
 11 34  1  0  0  0  0
 11 65  1  0  0  0  0
 12 38  2  0  0  0  0
 13 14  1  1  0  0  0
 13 15  1  0  0  0  0
 13 18  1  0  0  0  0
 13 45  1  0  0  0  0
 14 16  1  0  0  0  0
 14 46  1  0  0  0  0
 14 47  1  0  0  0  0
 15 17  1  0  0  0  0
 15 48  1  0  0  0  0
 15 49  1  0  0  0  0
 16 26  1  0  0  0  0
 16 50  1  0  0  0  0
 17 51  1  0  0  0  0
 17 52  1  0  0  0  0
 19 20  1  1  0  0  0
 19 22  1  0  0  0  0
 19 23  1  0  0  0  0
 19 53  1  0  0  0  0
 20 25  1  0  0  0  0
 20 55  1  0  0  0  0
 20 56  1  0  0  0  0
 21 24  1  0  0  0  0
 21 25  1  0  0  0  0
 21 58  1  0  0  0  0
 23 28  1  0  0  0  0
 23 59  1  0  0  0  0
 23 60  1  0  0  0  0
 24 27  1  0  0  0  0
 24 61  1  0  0  0  0
 24 62  1  0  0  0  0
 26 31  2  0  0  0  0
 26 63  1  0  0  0  0
 27 29  1  0  0  0  0
 27 30  1  0  0  0  0
 27 64  1  0  0  0  0
 28 32  2  0  0  0  0
 28 33  1  0  0  0  0
 29 66  1  0  0  0  0
 29 67  1  0  0  0  0
 29 68  1  0  0  0  0
 30 69  1  0  0  0  0
 30 70  1  0  0  0  0
 30 71  1  0  0  0  0
 31 35  1  0  0  0  0
 31 72  1  0  0  0  0
 32 36  1  0  0  0  0
 32 73  1  0  0  0  0
 33 37  2  0  0  0  0
 33 74  1  0  0  0  0
 34 38  1  0  0  0  0
 36 39  2  0  0  0  0
 36 75  1  0  0  0  0
 37 39  1  0  0  0  0
 37 76  1  0  0  0  0
 38 40  1  0  0  0  0
 40 41  2  0  0  0  0
 40 77  1  0  0  0  0
 41 43  1  0  0  0  0
 42 44  1  0  0  0  0
 42 78  1  0  0  0  0
 42 79  1  0  0  0  0
 43 80  1  0  0  0  0
 43 81  1  0  0  0  0
 43 82  1  0  0  0  0
 44 83  1  0  0  0  0
 44 84  1  0  0  0  0
 44 85  1  0  0  0  0
M  END
> <PUBCHEM_COMPOUND_CID>
44342479

> <PUBCHEM_COMPOUND_CANONICALIZED>
1

> <PUBCHEM_CACTVS_COMPLEXITY>
1030

> <PUBCHEM_CACTVS_HBOND_ACCEPTOR>
9

> <PUBCHEM_CACTVS_HBOND_DONOR>
3

> <PUBCHEM_CACTVS_ROTATABLE_BOND>
17

> <PUBCHEM_CACTVS_SUBSKEYS>
AAADcfB/uQAAAAAAAAAAAAAAAAAAAWLAAAAwAAAAAAAAAAABwAAAHwAUAAAADSzhng4yjJLQBACpA6XyWgCCAAAmIgAomKG+bNoIZjqAtbOWMYhmlhiI6cc/icCeAAAAAAAAAAAAAAAAAAAAAAAAAAAAAA==

> <PUBCHEM_IUPAC_OPENEYE_NAME>
ethyl (E,4S)-4-[[(2R,5S)-2-[(4-fluorophenyl)methyl]-7-methyl-5-[(5-methylisoxazole-3-carbonyl)amino]-4-oxo-octanoyl]amino]-5-[(3S)-2-oxopyrrolidin-3-yl]pent-2-enoate

> <PUBCHEM_IUPAC_CAS_NAME>
(E,4S)-4-[[(2R,5S)-2-[(4-fluorophenyl)methyl]-7-methyl-5-[[(5-methyl-3-isoxazolyl)-oxomethyl]amino]-1,4-dioxooctyl]amino]-5-[(3S)-2-oxo-3-pyrrolidinyl]-2-pentenoic acid ethyl ester

> <PUBCHEM_IUPAC_NAME_MARKUP>
ethyl (<I>E</I>,4<I>S</I>)-4-[[(2<I>R</I>,5<I>S</I>)-2-[(4-fluorophenyl)methyl]-7-methyl-5-[(5-methyl-1,2-oxazole-3-carbonyl)amino]-4-oxooctanoyl]amino]-5-[(3<I>S</I>)-2-oxopyrrolidin-3-yl]pent-2-enoate

> <PUBCHEM_IUPAC_NAME>
ethyl (E,4S)-4-[[(2R,5S)-2-[(4-fluorophenyl)methyl]-7-methyl-5-[(5-methyl-1,2-oxazole-3-carbonyl)amino]-4-oxooctanoyl]amino]-5-[(3S)-2-oxopyrrolidin-3-yl]pent-2-enoate

> <PUBCHEM_IUPAC_SYSTEMATIC_NAME>
ethyl (E,4S)-4-[[(2R,5S)-2-[(4-fluorophenyl)methyl]-7-methyl-5-[(5-methyl-1,2-oxazol-3-yl)carbonylamino]-4-oxidanylidene-octanoyl]amino]-5-[(3S)-2-oxidanylidenepyrrolidin-3-yl]pent-2-enoate

> <PUBCHEM_IUPAC_TRADITIONAL_NAME>
(E,4S)-4-[[(2R,5S)-2-(4-fluorobenzyl)-4-keto-7-methyl-5-[(5-methylisoxazole-3-carbonyl)amino]octanoyl]amino]-5-[(3S)-2-ketopyrrolidin-3-yl]pent-2-enoic acid ethyl ester

> <PUBCHEM_IUPAC_INCHI>
InChI=1S/C32H41FN4O7/c1-5-43-29(39)11-10-25(17-22-12-13-34-30(22)40)35-31(41)23(16-21-6-8-24(33)9-7-21)18-28(38)26(14-19(2)3)36-32(42)27-15-20(4)44-37-27/h6-11,15,19,22-23,25-26H,5,12-14,16-18H2,1-4H3,(H,34,40)(H,35,41)(H,36,42)/b11-10+/t22-,23+,25+,26-/m0/s1

> <PUBCHEM_IUPAC_INCHIKEY>
QUVSUMVCSBNNNS-SZEOJMJRSA-N

> <PUBCHEM_XLOGP3_AA>
3.4

> <PUBCHEM_EXACT_MASS>
612.295928

> <PUBCHEM_MOLECULAR_FORMULA>
C32H41FN4O7

> <PUBCHEM_MOLECULAR_WEIGHT>
612.7

> <PUBCHEM_OPENEYE_CAN_SMILES>
CCOC(=O)C=CC(CC1CCNC1=O)NC(=O)C(CC2=CC=C(C=C2)F)CC(=O)C(CC(C)C)NC(=O)C3=NOC(=C3)C

> <PUBCHEM_OPENEYE_ISO_SMILES>
CCOC(=O)/C=C/[C@H](C[C@@H]1CCNC1=O)NC(=O)[C@H](CC2=CC=C(C=C2)F)CC(=O)[C@H](CC(C)C)NC(=O)C3=NOC(=C3)C

> <PUBCHEM_CACTVS_TPSA>
157

> <PUBCHEM_MONOISOTOPIC_WEIGHT>
612.295928

> <PUBCHEM_TOTAL_CHARGE>
0

> <PUBCHEM_HEAVY_ATOM_COUNT>
44

> <PUBCHEM_ATOM_DEF_STEREO_COUNT>
4

> <PUBCHEM_ATOM_UDEF_STEREO_COUNT>
0

> <PUBCHEM_BOND_DEF_STEREO_COUNT>
1

> <PUBCHEM_BOND_UDEF_STEREO_COUNT>
0

> <PUBCHEM_ISOTOPIC_ATOM_COUNT>
0

> <PUBCHEM_COMPONENT_COUNT>
1

> <PUBCHEM_CACTVS_TAUTO_COUNT>
-1

> <PUBCHEM_COORDINATE_TYPE>
1
5
255

> <PUBCHEM_BONDANNOTATIONS>
16  10  6
21  11  5
12  38  8
13  14  5
19  20  5
28  32  8
28  33  8
32  36  8
33  37  8
36  39  8
37  39  8
38  40  8
40  41  8
8  12  8
8  41  8

$$$$
44404017
  -OEChem-02212016592D

 82 84  0     1  0  0  0  0  0999 V2000
    5.4641   -5.2702    0.0000 F   0  0  0  0  0  0  0  0  0  0  0  0
    8.0902    3.5086    0.0000 O   0  0  0  0  0  0  0  0  0  0  0  0
    7.1962    0.7298    0.0000 O   0  0  0  0  0  0  0  0  0  0  0  0
    8.0622    0.2298    0.0000 O   0  0  0  0  0  0  0  0  0  0  0  0
    2.8660    3.2298    0.0000 O   0  0  0  0  0  0  0  0  0  0  0  0
   10.6603   -2.2702    0.0000 O   0  0  0  0  0  0  0  0  0  0  0  0
    2.0000    1.7298    0.0000 O   0  0  0  0  0  0  0  0  0  0  0  0
   12.6090    0.4322    0.0000 O   0  0  0  0  0  0  0  0  0  0  0  0
    6.8301    4.7686    0.0000 N   0  0  0  0  0  0  0  0  0  0  0  0
    5.4641    0.7298    0.0000 N   0  0  0  0  0  0  0  0  0  0  0  0
    9.7942   -0.7702    0.0000 N   0  0  0  0  0  0  0  0  0  0  0  0
   11.6308    0.2243    0.0000 N   0  0  0  0  0  0  0  0  0  0  0  0
    6.3301    3.2298    0.0000 C   0  0  2  0  0  0  0  0  0  0  0  0
    6.3301    2.2298    0.0000 C   0  0  0  0  0  0  0  0  0  0  0  0
    5.5211    3.8176    0.0000 C   0  0  0  0  0  0  0  0  0  0  0  0
    5.4641    1.7298    0.0000 C   0  0  1  0  0  0  0  0  0  0  0  0
    5.8301    4.7686    0.0000 C   0  0  0  0  0  0  0  0  0  0  0  0
    7.1391    3.8176    0.0000 C   0  0  0  0  0  0  0  0  0  0  0  0
    6.3301   -0.7702    0.0000 C   0  0  3  0  0  0  0  0  0  0  0  0
    7.1962   -1.2702    0.0000 C   0  0  0  0  0  0  0  0  0  0  0  0
    6.3301    0.2298    0.0000 C   0  0  0  0  0  0  0  0  0  0  0  0
    8.9282   -1.2702    0.0000 C   0  0  1  0  0  0  0  0  0  0  0  0
    5.4641   -1.2702    0.0000 C   0  0  0  0  0  0  0  0  0  0  0  0
    8.9282   -2.2702    0.0000 C   0  0  0  0  0  0  0  0  0  0  0  0
    8.0622   -0.7702    0.0000 C   0  0  0  0  0  0  0  0  0  0  0  0
    4.5981    2.2298    0.0000 C   0  0  0  0  0  0  0  0  0  0  0  0
    5.4641   -2.2702    0.0000 C   0  0  0  0  0  0  0  0  0  0  0  0
    9.7942   -2.7702    0.0000 C   0  0  0  0  0  0  0  0  0  0  0  0
    8.0622   -2.7702    0.0000 C   0  0  0  0  0  0  0  0  0  0  0  0
    3.7320    1.7298    0.0000 C   0  0  0  0  0  0  0  0  0  0  0  0
    6.3301   -2.7702    0.0000 C   0  0  0  0  0  0  0  0  0  0  0  0
    4.5981   -2.7702    0.0000 C   0  0  0  0  0  0  0  0  0  0  0  0
   10.6603   -1.2702    0.0000 C   0  0  0  0  0  0  0  0  0  0  0  0
    2.8660    2.2298    0.0000 C   0  0  0  0  0  0  0  0  0  0  0  0
    6.3301   -3.7702    0.0000 C   0  0  0  0  0  0  0  0  0  0  0  0
    4.5981   -3.7702    0.0000 C   0  0  0  0  0  0  0  0  0  0  0  0
   11.5263   -0.7702    0.0000 C   0  0  0  0  0  0  0  0  0  0  0  0
    5.4641   -4.2702    0.0000 C   0  0  0  0  0  0  0  0  0  0  0  0
   12.4398   -1.1770    0.0000 C   0  0  0  0  0  0  0  0  0  0  0  0
   13.1090   -0.4338    0.0000 C   0  0  0  0  0  0  0  0  0  0  0  0
    2.0000    3.7298    0.0000 C   0  0  0  0  0  0  0  0  0  0  0  0
   14.1035   -0.5383    0.0000 C   0  0  0  0  0  0  0  0  0  0  0  0
    2.0000    4.7298    0.0000 C   0  0  0  0  0  0  0  0  0  0  0  0
    6.8826    2.9483    0.0000 H   0  0  0  0  0  0  0  0  0  0  0  0
    6.5422    1.6472    0.0000 H   0  0  0  0  0  0  0  0  0  0  0  0
    6.9407    2.3374    0.0000 H   0  0  0  0  0  0  0  0  0  0  0  0
    4.9547    4.0698    0.0000 H   0  0  0  0  0  0  0  0  0  0  0  0
    5.2111    3.2806    0.0000 H   0  0  0  0  0  0  0  0  0  0  0  0
    6.0010    1.4198    0.0000 H   0  0  0  0  0  0  0  0  0  0  0  0
    5.8949    5.3852    0.0000 H   0  0  0  0  0  0  0  0  0  0  0  0
    5.2237    4.8975    0.0000 H   0  0  0  0  0  0  0  0  0  0  0  0
    6.8671   -0.4602    0.0000 H   0  0  0  0  0  0  0  0  0  0  0  0
    7.1946    5.2702    0.0000 H   0  0  0  0  0  0  0  0  0  0  0  0
    6.7976   -1.7452    0.0000 H   0  0  0  0  0  0  0  0  0  0  0  0
    7.5947   -1.7452    0.0000 H   0  0  0  0  0  0  0  0  0  0  0  0
    4.9272    0.4198    0.0000 H   0  0  0  0  0  0  0  0  0  0  0  0
    8.9282   -0.6502    0.0000 H   0  0  0  0  0  0  0  0  0  0  0  0
    5.2520   -0.6876    0.0000 H   0  0  0  0  0  0  0  0  0  0  0  0
    4.8535   -1.3779    0.0000 H   0  0  0  0  0  0  0  0  0  0  0  0
    9.4651   -1.9602    0.0000 H   0  0  0  0  0  0  0  0  0  0  0  0
    4.5981    2.8498    0.0000 H   0  0  0  0  0  0  0  0  0  0  0  0
    9.7942   -0.1502    0.0000 H   0  0  0  0  0  0  0  0  0  0  0  0
    9.4842   -3.3072    0.0000 H   0  0  0  0  0  0  0  0  0  0  0  0
   10.3312   -3.0802    0.0000 H   0  0  0  0  0  0  0  0  0  0  0  0
   10.1042   -2.2333    0.0000 H   0  0  0  0  0  0  0  0  0  0  0  0
    7.7522   -2.2333    0.0000 H   0  0  0  0  0  0  0  0  0  0  0  0
    7.5252   -3.0802    0.0000 H   0  0  0  0  0  0  0  0  0  0  0  0
    8.3722   -3.3072    0.0000 H   0  0  0  0  0  0  0  0  0  0  0  0
    3.7320    1.1098    0.0000 H   0  0  0  0  0  0  0  0  0  0  0  0
    6.8671   -2.4602    0.0000 H   0  0  0  0  0  0  0  0  0  0  0  0
    4.0611   -2.4602    0.0000 H   0  0  0  0  0  0  0  0  0  0  0  0
    6.8671   -4.0802    0.0000 H   0  0  0  0  0  0  0  0  0  0  0  0
    4.0611   -4.0802    0.0000 H   0  0  0  0  0  0  0  0  0  0  0  0
   12.5687   -1.7834    0.0000 H   0  0  0  0  0  0  0  0  0  0  0  0
    1.3894    3.8374    0.0000 H   0  0  0  0  0  0  0  0  0  0  0  0
    1.7880    3.1472    0.0000 H   0  0  0  0  0  0  0  0  0  0  0  0
   14.0387   -1.1549    0.0000 H   0  0  0  0  0  0  0  0  0  0  0  0
   14.7201   -0.6031    0.0000 H   0  0  0  0  0  0  0  0  0  0  0  0
   14.1683    0.0783    0.0000 H   0  0  0  0  0  0  0  0  0  0  0  0
    2.6200    4.7298    0.0000 H   0  0  0  0  0  0  0  0  0  0  0  0
    2.0000    5.3498    0.0000 H   0  0  0  0  0  0  0  0  0  0  0  0
    1.3800    4.7298    0.0000 H   0  0  0  0  0  0  0  0  0  0  0  0
  1 38  1  0  0  0  0
  2 18  2  0  0  0  0
  3 21  2  0  0  0  0
  4 25  2  0  0  0  0
  5 34  1  0  0  0  0
  5 41  1  0  0  0  0
  6 33  2  0  0  0  0
  7 34  2  0  0  0  0
  8 12  1  0  0  0  0
  8 40  1  0  0  0  0
  9 17  1  0  0  0  0
  9 18  1  0  0  0  0
  9 53  1  0  0  0  0
 16 10  1  6  0  0  0
 10 21  1  0  0  0  0
 10 56  1  0  0  0  0
 22 11  1  1  0  0  0
 11 33  1  0  0  0  0
 11 62  1  0  0  0  0
 12 37  2  0  0  0  0
 13 14  1  6  0  0  0
 13 15  1  0  0  0  0
 13 18  1  0  0  0  0
 13 44  1  0  0  0  0
 14 16  1  0  0  0  0
 14 45  1  0  0  0  0
 14 46  1  0  0  0  0
 15 17  1  0  0  0  0
 15 47  1  0  0  0  0
 15 48  1  0  0  0  0
 16 26  1  0  0  0  0
 16 49  1  0  0  0  0
 17 50  1  0  0  0  0
 17 51  1  0  0  0  0
 19 20  1  0  0  0  0
 19 21  1  0  0  0  0
 19 23  1  0  0  0  0
 19 52  1  0  0  0  0
 20 25  1  0  0  0  0
 20 54  1  0  0  0  0
 20 55  1  0  0  0  0
 22 24  1  0  0  0  0
 22 25  1  0  0  0  0
 22 57  1  0  0  0  0
 23 27  1  0  0  0  0
 23 58  1  0  0  0  0
 23 59  1  0  0  0  0
 24 28  1  0  0  0  0
 24 29  1  0  0  0  0
 24 60  1  0  0  0  0
 26 30  2  0  0  0  0
 26 61  1  0  0  0  0
 27 31  2  0  0  0  0
 27 32  1  0  0  0  0
 28 63  1  0  0  0  0
 28 64  1  0  0  0  0
 28 65  1  0  0  0  0
 29 66  1  0  0  0  0
 29 67  1  0  0  0  0
 29 68  1  0  0  0  0
 30 34  1  0  0  0  0
 30 69  1  0  0  0  0
 31 35  1  0  0  0  0
 31 70  1  0  0  0  0
 32 36  2  0  0  0  0
 32 71  1  0  0  0  0
 33 37  1  0  0  0  0
 35 38  2  0  0  0  0
 35 72  1  0  0  0  0
 36 38  1  0  0  0  0
 36 73  1  0  0  0  0
 37 39  1  0  0  0  0
 39 40  2  0  0  0  0
 39 74  1  0  0  0  0
 40 42  1  0  0  0  0
 41 43  1  0  0  0  0
 41 75  1  0  0  0  0
 41 76  1  0  0  0  0
 42 77  1  0  0  0  0
 42 78  1  0  0  0  0
 42 79  1  0  0  0  0
 43 80  1  0  0  0  0
 43 81  1  0  0  0  0
 43 82  1  0  0  0  0
M  END
> <PUBCHEM_COMPOUND_CID>
44404017

> <PUBCHEM_COMPOUND_CANONICALIZED>
1

> <PUBCHEM_CACTVS_COMPLEXITY>
1010

> <PUBCHEM_CACTVS_HBOND_ACCEPTOR>
9

> <PUBCHEM_CACTVS_HBOND_DONOR>
3

> <PUBCHEM_CACTVS_ROTATABLE_BOND>
16

> <PUBCHEM_CACTVS_SUBSKEYS>
AAADcfB7uQAAAAAAAAAAAAAAAAAAAWLAAAAwAAAAAAAAAAABwAAAHwAUAAAADSzhng4yjJLQBACpA6XyWgCCAAAmIgAomKG+bNoIZjqAtbOWMYhmlhiI6cc/icCeAAAAAAAAAAAAAAAAAAAAAAAAAAAAAA==

> <PUBCHEM_IUPAC_OPENEYE_NAME>
ethyl (E,4S)-4-[[(5S)-2-[(4-fluorophenyl)methyl]-6-methyl-5-[(5-methylisoxazole-3-carbonyl)amino]-4-oxo-heptanoyl]amino]-5-[(3S)-2-oxopyrrolidin-3-yl]pent-2-enoate

> <PUBCHEM_IUPAC_CAS_NAME>
(E,4S)-4-[[(5S)-2-[(4-fluorophenyl)methyl]-6-methyl-5-[[(5-methyl-3-isoxazolyl)-oxomethyl]amino]-1,4-dioxoheptyl]amino]-5-[(3S)-2-oxo-3-pyrrolidinyl]-2-pentenoic acid ethyl ester

> <PUBCHEM_IUPAC_NAME_MARKUP>
ethyl (<I>E</I>,4<I>S</I>)-4-[[(5<I>S</I>)-2-[(4-fluorophenyl)methyl]-6-methyl-5-[(5-methyl-1,2-oxazole-3-carbonyl)amino]-4-oxoheptanoyl]amino]-5-[(3<I>S</I>)-2-oxopyrrolidin-3-yl]pent-2-enoate

> <PUBCHEM_IUPAC_NAME>
ethyl (E,4S)-4-[[(5S)-2-[(4-fluorophenyl)methyl]-6-methyl-5-[(5-methyl-1,2-oxazole-3-carbonyl)amino]-4-oxoheptanoyl]amino]-5-[(3S)-2-oxopyrrolidin-3-yl]pent-2-enoate

> <PUBCHEM_IUPAC_SYSTEMATIC_NAME>
ethyl (E,4S)-4-[[(5S)-2-[(4-fluorophenyl)methyl]-6-methyl-5-[(5-methyl-1,2-oxazol-3-yl)carbonylamino]-4-oxidanylidene-heptanoyl]amino]-5-[(3S)-2-oxidanylidenepyrrolidin-3-yl]pent-2-enoate

> <PUBCHEM_IUPAC_TRADITIONAL_NAME>
(E,4S)-4-[[(5S)-2-(4-fluorobenzyl)-4-keto-6-methyl-5-[(5-methylisoxazole-3-carbonyl)amino]heptanoyl]amino]-5-[(3S)-2-ketopyrrolidin-3-yl]pent-2-enoic acid ethyl ester

> <PUBCHEM_IUPAC_INCHI>
InChI=1S/C31H39FN4O7/c1-5-42-27(38)11-10-24(16-21-12-13-33-29(21)39)34-30(40)22(15-20-6-8-23(32)9-7-20)17-26(37)28(18(2)3)35-31(41)25-14-19(4)43-36-25/h6-11,14,18,21-22,24,28H,5,12-13,15-17H2,1-4H3,(H,33,39)(H,34,40)(H,35,41)/b11-10+/t21-,22?,24+,28-/m0/s1

> <PUBCHEM_IUPAC_INCHIKEY>
CAYJBRBGZBCZKO-VNLPBREVSA-N

> <PUBCHEM_XLOGP3_AA>
3.1

> <PUBCHEM_EXACT_MASS>
598.280278

> <PUBCHEM_MOLECULAR_FORMULA>
C31H39FN4O7

> <PUBCHEM_MOLECULAR_WEIGHT>
598.7

> <PUBCHEM_OPENEYE_CAN_SMILES>
CCOC(=O)C=CC(CC1CCNC1=O)NC(=O)C(CC2=CC=C(C=C2)F)CC(=O)C(C(C)C)NC(=O)C3=NOC(=C3)C

> <PUBCHEM_OPENEYE_ISO_SMILES>
CCOC(=O)/C=C/[C@H](C[C@@H]1CCNC1=O)NC(=O)C(CC2=CC=C(C=C2)F)CC(=O)[C@H](C(C)C)NC(=O)C3=NOC(=C3)C

> <PUBCHEM_CACTVS_TPSA>
157

> <PUBCHEM_MONOISOTOPIC_WEIGHT>
598.280278

> <PUBCHEM_TOTAL_CHARGE>
0

> <PUBCHEM_HEAVY_ATOM_COUNT>
43

> <PUBCHEM_ATOM_DEF_STEREO_COUNT>
3

> <PUBCHEM_ATOM_UDEF_STEREO_COUNT>
1

> <PUBCHEM_BOND_DEF_STEREO_COUNT>
1

> <PUBCHEM_BOND_UDEF_STEREO_COUNT>
0

> <PUBCHEM_ISOTOPIC_ATOM_COUNT>
0

> <PUBCHEM_COMPONENT_COUNT>
1

> <PUBCHEM_CACTVS_TAUTO_COUNT>
-1

> <PUBCHEM_COORDINATE_TYPE>
1
5
255

> <PUBCHEM_BONDANNOTATIONS>
16  10  6
22  11  5
12  37  8
13  14  6
19  23  3
27  31  8
27  32  8
31  35  8
32  36  8
35  38  8
36  38  8
37  39  8
39  40  8
8  12  8
8  40  8

$$$$
46398807
  -OEChem-02212016592D

 99101  0     1  0  0  0  0  0999 V2000
   13.3364    2.3557    0.0000 O   0  0  0  0  0  0  0  0  0  0  0  0
   10.5109    1.6920    0.0000 O   0  0  0  0  0  0  0  0  0  0  0  0
   10.5109   -2.3080    0.0000 O   0  0  0  0  0  0  0  0  0  0  0  0
    9.6448    2.1920    0.0000 O   0  0  0  0  0  0  0  0  0  0  0  0
    9.6448   -0.8080    0.0000 O   0  0  0  0  0  0  0  0  0  0  0  0
    7.0468    4.6920    0.0000 O   0  0  0  0  0  0  0  0  0  0  0  0
    4.4487    2.1920    0.0000 O   0  0  0  0  0  0  0  0  0  0  0  0
    2.0000    4.0284    0.0000 O   0  0  0  0  0  0  0  0  0  0  0  0
   12.2429    1.6920    0.0000 N   0  0  0  0  0  0  0  0  0  0  0  0
   15.0577    1.8944    0.0000 N   0  0  0  0  0  0  0  0  0  0  0  0
   10.5109    3.6920    0.0000 N   0  0  0  0  0  0  0  0  0  0  0  0
    7.9128    3.1920    0.0000 N   0  0  0  0  0  0  0  0  0  0  0  0
    5.3147    3.6920    0.0000 N   0  0  0  0  0  0  0  0  0  0  0  0
    2.6691    3.2853    0.0000 N   0  0  0  0  0  0  0  0  0  0  0  0
   13.9750    0.6920    0.0000 C   0  0  3  0  0  0  0  0  0  0  0  0
   13.1090    0.1920    0.0000 C   0  0  0  0  0  0  0  0  0  0  0  0
   12.2429    0.6920    0.0000 C   0  0  1  0  0  0  0  0  0  0  0  0
   14.8885    0.2853    0.0000 C   0  0  0  0  0  0  0  0  0  0  0  0
   15.5577    1.0284    0.0000 C   0  0  0  0  0  0  0  0  0  0  0  0
   11.3769    0.1920    0.0000 C   0  0  0  0  0  0  0  0  0  0  0  0
   14.0795    1.6865    0.0000 C   0  0  0  0  0  0  0  0  0  0  0  0
   11.3769    3.1920    0.0000 C   0  0  2  0  0  0  0  0  0  0  0  0
   11.3769    2.1920    0.0000 C   0  0  0  0  0  0  0  0  0  0  0  0
   11.3769   -0.8080    0.0000 C   0  0  0  0  0  0  0  0  0  0  0  0
   12.2429    3.6920    0.0000 C   0  0  0  0  0  0  0  0  0  0  0  0
   12.2429    4.6920    0.0000 C   0  0  0  0  0  0  0  0  0  0  0  0
    8.7788    3.6920    0.0000 C   0  0  2  0  0  0  0  0  0  0  0  0
    9.6448    3.1920    0.0000 C   0  0  0  0  0  0  0  0  0  0  0  0
    8.7788    4.6920    0.0000 C   0  0  0  0  0  0  0  0  0  0  0  0
   10.5109   -1.3080    0.0000 C   0  0  0  0  0  0  0  0  0  0  0  0
   13.1090    5.1920    0.0000 C   0  0  0  0  0  0  0  0  0  0  0  0
   11.3769    5.1920    0.0000 C   0  0  0  0  0  0  0  0  0  0  0  0
    7.9128    5.1920    0.0000 C   0  0  0  0  0  0  0  0  0  0  0  0
    9.6448    5.1920    0.0000 C   0  0  0  0  0  0  0  0  0  0  0  0
    7.0468    3.6920    0.0000 C   0  0  0  0  0  0  0  0  0  0  0  0
    6.1808    3.1920    0.0000 C   0  0  2  0  0  0  0  0  0  0  0  0
    9.6448   -2.8080    0.0000 C   0  0  0  0  0  0  0  0  0  0  0  0
    6.1808    2.1920    0.0000 C   0  0  0  0  0  0  0  0  0  0  0  0
    9.6448   -3.8080    0.0000 C   0  0  0  0  0  0  0  0  0  0  0  0
    4.4487    3.1920    0.0000 C   0  0  0  0  0  0  0  0  0  0  0  0
    8.7788   -4.3080    0.0000 C   0  0  0  0  0  0  0  0  0  0  0  0
   10.5109   -4.3080    0.0000 C   0  0  0  0  0  0  0  0  0  0  0  0
    3.5827    3.6920    0.0000 C   0  0  0  0  0  0  0  0  0  0  0  0
    8.7788   -5.3080    0.0000 C   0  0  0  0  0  0  0  0  0  0  0  0
   10.5109   -5.3080    0.0000 C   0  0  0  0  0  0  0  0  0  0  0  0
    9.6448   -5.8080    0.0000 C   0  0  0  0  0  0  0  0  0  0  0  0
    3.4782    4.6865    0.0000 C   0  0  0  0  0  0  0  0  0  0  0  0
    2.5000    4.8944    0.0000 C   0  0  0  0  0  0  0  0  0  0  0  0
    2.0933    5.8080    0.0000 C   0  0  0  0  0  0  0  0  0  0  0  0
   14.0074    0.0729    0.0000 H   0  0  0  0  0  0  0  0  0  0  0  0
   12.7104   -0.2829    0.0000 H   0  0  0  0  0  0  0  0  0  0  0  0
   13.5075   -0.2829    0.0000 H   0  0  0  0  0  0  0  0  0  0  0  0
   12.7799    1.0020    0.0000 H   0  0  0  0  0  0  0  0  0  0  0  0
   14.5785   -0.2517    0.0000 H   0  0  0  0  0  0  0  0  0  0  0  0
   15.3901   -0.0792    0.0000 H   0  0  0  0  0  0  0  0  0  0  0  0
   15.9725    0.5677    0.0000 H   0  0  0  0  0  0  0  0  0  0  0  0
   16.0592    1.3928    0.0000 H   0  0  0  0  0  0  0  0  0  0  0  0
   11.1649    0.7746    0.0000 H   0  0  0  0  0  0  0  0  0  0  0  0
   10.7663    0.0843    0.0000 H   0  0  0  0  0  0  0  0  0  0  0  0
   12.7799    2.0020    0.0000 H   0  0  0  0  0  0  0  0  0  0  0  0
   15.3098    2.4608    0.0000 H   0  0  0  0  0  0  0  0  0  0  0  0
   10.8400    2.8820    0.0000 H   0  0  0  0  0  0  0  0  0  0  0  0
   11.5890   -1.3906    0.0000 H   0  0  0  0  0  0  0  0  0  0  0  0
   11.9875   -0.7003    0.0000 H   0  0  0  0  0  0  0  0  0  0  0  0
   12.4550    3.1094    0.0000 H   0  0  0  0  0  0  0  0  0  0  0  0
   12.8535    3.7997    0.0000 H   0  0  0  0  0  0  0  0  0  0  0  0
   12.7799    4.3820    0.0000 H   0  0  0  0  0  0  0  0  0  0  0  0
   10.5109    4.3120    0.0000 H   0  0  0  0  0  0  0  0  0  0  0  0
    8.2419    4.0020    0.0000 H   0  0  0  0  0  0  0  0  0  0  0  0
    9.3158    4.3820    0.0000 H   0  0  0  0  0  0  0  0  0  0  0  0
   13.4190    4.6551    0.0000 H   0  0  0  0  0  0  0  0  0  0  0  0
   13.6459    5.5020    0.0000 H   0  0  0  0  0  0  0  0  0  0  0  0
   12.7990    5.7290    0.0000 H   0  0  0  0  0  0  0  0  0  0  0  0
   11.6869    5.7290    0.0000 H   0  0  0  0  0  0  0  0  0  0  0  0
   10.8400    5.5020    0.0000 H   0  0  0  0  0  0  0  0  0  0  0  0
   11.0669    4.6551    0.0000 H   0  0  0  0  0  0  0  0  0  0  0  0
    7.9128    2.5720    0.0000 H   0  0  0  0  0  0  0  0  0  0  0  0
    8.2228    5.7290    0.0000 H   0  0  0  0  0  0  0  0  0  0  0  0
    7.3759    5.5020    0.0000 H   0  0  0  0  0  0  0  0  0  0  0  0
    7.6028    4.6551    0.0000 H   0  0  0  0  0  0  0  0  0  0  0  0
    9.9548    4.6551    0.0000 H   0  0  0  0  0  0  0  0  0  0  0  0
   10.1818    5.5020    0.0000 H   0  0  0  0  0  0  0  0  0  0  0  0
    9.3348    5.7290    0.0000 H   0  0  0  0  0  0  0  0  0  0  0  0
    6.1808    3.8120    0.0000 H   0  0  0  0  0  0  0  0  0  0  0  0
    9.4328   -2.2254    0.0000 H   0  0  0  0  0  0  0  0  0  0  0  0
    9.0343   -2.9156    0.0000 H   0  0  0  0  0  0  0  0  0  0  0  0
    5.5608    2.1920    0.0000 H   0  0  0  0  0  0  0  0  0  0  0  0
    6.1808    1.5720    0.0000 H   0  0  0  0  0  0  0  0  0  0  0  0
    6.8008    2.1920    0.0000 H   0  0  0  0  0  0  0  0  0  0  0  0
    5.3147    4.3120    0.0000 H   0  0  0  0  0  0  0  0  0  0  0  0
    8.2419   -3.9980    0.0000 H   0  0  0  0  0  0  0  0  0  0  0  0
   11.0478   -3.9980    0.0000 H   0  0  0  0  0  0  0  0  0  0  0  0
    8.2419   -5.6180    0.0000 H   0  0  0  0  0  0  0  0  0  0  0  0
   11.0478   -5.6180    0.0000 H   0  0  0  0  0  0  0  0  0  0  0  0
    9.6448   -6.4280    0.0000 H   0  0  0  0  0  0  0  0  0  0  0  0
    3.9389    5.1014    0.0000 H   0  0  0  0  0  0  0  0  0  0  0  0
    2.6597    6.0602    0.0000 H   0  0  0  0  0  0  0  0  0  0  0  0
    1.8411    6.3744    0.0000 H   0  0  0  0  0  0  0  0  0  0  0  0
    1.5269    5.5558    0.0000 H   0  0  0  0  0  0  0  0  0  0  0  0
  1 21  2  0  0  0  0
  2 23  2  0  0  0  0
  3 30  1  0  0  0  0
  3 37  1  0  0  0  0
  4 28  2  0  0  0  0
  5 30  2  0  0  0  0
  6 35  2  0  0  0  0
  7 40  2  0  0  0  0
  8 14  1  0  0  0  0
  8 48  1  0  0  0  0
 17  9  1  1  0  0  0
  9 23  1  0  0  0  0
  9 60  1  0  0  0  0
 10 19  1  0  0  0  0
 10 21  1  0  0  0  0
 10 61  1  0  0  0  0
 22 11  1  1  0  0  0
 11 28  1  0  0  0  0
 11 68  1  0  0  0  0
 27 12  1  1  0  0  0
 12 35  1  0  0  0  0
 12 77  1  0  0  0  0
 36 13  1  6  0  0  0
 13 40  1  0  0  0  0
 13 90  1  0  0  0  0
 14 43  2  0  0  0  0
 15 16  1  0  0  0  0
 15 18  1  0  0  0  0
 15 21  1  0  0  0  0
 15 50  1  0  0  0  0
 16 17  1  0  0  0  0
 16 51  1  0  0  0  0
 16 52  1  0  0  0  0
 17 20  1  0  0  0  0
 17 53  1  0  0  0  0
 18 19  1  0  0  0  0
 18 54  1  0  0  0  0
 18 55  1  0  0  0  0
 19 56  1  0  0  0  0
 19 57  1  0  0  0  0
 20 24  1  0  0  0  0
 20 58  1  0  0  0  0
 20 59  1  0  0  0  0
 22 23  1  0  0  0  0
 22 25  1  0  0  0  0
 22 62  1  0  0  0  0
 24 30  1  0  0  0  0
 24 63  1  0  0  0  0
 24 64  1  0  0  0  0
 25 26  1  0  0  0  0
 25 65  1  0  0  0  0
 25 66  1  0  0  0  0
 26 31  1  0  0  0  0
 26 32  1  0  0  0  0
 26 67  1  0  0  0  0
 27 28  1  0  0  0  0
 27 29  1  0  0  0  0
 27 69  1  0  0  0  0
 29 33  1  0  0  0  0
 29 34  1  0  0  0  0
 29 70  1  0  0  0  0
 31 71  1  0  0  0  0
 31 72  1  0  0  0  0
 31 73  1  0  0  0  0
 32 74  1  0  0  0  0
 32 75  1  0  0  0  0
 32 76  1  0  0  0  0
 33 78  1  0  0  0  0
 33 79  1  0  0  0  0
 33 80  1  0  0  0  0
 34 81  1  0  0  0  0
 34 82  1  0  0  0  0
 34 83  1  0  0  0  0
 35 36  1  0  0  0  0
 36 38  1  0  0  0  0
 36 84  1  0  0  0  0
 37 39  1  0  0  0  0
 37 85  1  0  0  0  0
 37 86  1  0  0  0  0
 38 87  1  0  0  0  0
 38 88  1  0  0  0  0
 38 89  1  0  0  0  0
 39 41  2  0  0  0  0
 39 42  1  0  0  0  0
 40 43  1  0  0  0  0
 41 44  1  0  0  0  0
 41 91  1  0  0  0  0
 42 45  2  0  0  0  0
 42 92  1  0  0  0  0
 43 47  1  0  0  0  0
 44 46  2  0  0  0  0
 44 93  1  0  0  0  0
 45 46  1  0  0  0  0
 45 94  1  0  0  0  0
 46 95  1  0  0  0  0
 47 48  2  0  0  0  0
 47 96  1  0  0  0  0
 48 49  1  0  0  0  0
 49 97  1  0  0  0  0
 49 98  1  0  0  0  0
 49 99  1  0  0  0  0
M  END
> <PUBCHEM_COMPOUND_CID>
46398807

> <PUBCHEM_COMPOUND_CANONICALIZED>
1

> <PUBCHEM_CACTVS_COMPLEXITY>
1140

> <PUBCHEM_CACTVS_HBOND_ACCEPTOR>
9

> <PUBCHEM_CACTVS_HBOND_DONOR>
5

> <PUBCHEM_CACTVS_ROTATABLE_BOND>
19

> <PUBCHEM_CACTVS_SUBSKEYS>
AAADcfB/vAAAAAAAAAAAAAAAAAAAAWLAAAAwAAAAAAAAAAABwAAAHgAUAAAADSzhngYyjJLQBACpA6XyWgCCAAAmIgAomKG+bNoIZjqAtbuWMYhm1hmI6ce/yOCOAAAAAAAAAAAAAAAAAAAAAAAAAAAAAA==

> <PUBCHEM_IUPAC_OPENEYE_NAME>
benzyl (4R)-4-[[(2S)-4-methyl-2-[[(2S)-3-methyl-2-[[(2S)-2-[(5-methylisoxazole-3-carbonyl)amino]propanoyl]amino]butanoyl]amino]pentanoyl]amino]-5-(2-oxopyrrolidin-3-yl)pentanoate

> <PUBCHEM_IUPAC_CAS_NAME>
(4R)-4-[[(2S)-4-methyl-2-[[(2S)-3-methyl-2-[[(2S)-2-[[(5-methyl-3-isoxazolyl)-oxomethyl]amino]-1-oxopropyl]amino]-1-oxobutyl]amino]-1-oxopentyl]amino]-5-(2-oxo-3-pyrrolidinyl)pentanoic acid (phenylmethyl) ester

> <PUBCHEM_IUPAC_NAME_MARKUP>
benzyl (4<I>R</I>)-4-[[(2<I>S</I>)-4-methyl-2-[[(2<I>S</I>)-3-methyl-2-[[(2<I>S</I>)-2-[(5-methyl-1,2-oxazole-3-carbonyl)amino]propanoyl]amino]butanoyl]amino]pentanoyl]amino]-5-(2-oxopyrrolidin-3-yl)pentanoate

> <PUBCHEM_IUPAC_NAME>
benzyl (4R)-4-[[(2S)-4-methyl-2-[[(2S)-3-methyl-2-[[(2S)-2-[(5-methyl-1,2-oxazole-3-carbonyl)amino]propanoyl]amino]butanoyl]amino]pentanoyl]amino]-5-(2-oxopyrrolidin-3-yl)pentanoate

> <PUBCHEM_IUPAC_SYSTEMATIC_NAME>
(phenylmethyl) (4R)-4-[[(2S)-4-methyl-2-[[(2S)-3-methyl-2-[[(2S)-2-[(5-methyl-1,2-oxazol-3-yl)carbonylamino]propanoyl]amino]butanoyl]amino]pentanoyl]amino]-5-(2-oxidanylidenepyrrolidin-3-yl)pentanoate

> <PUBCHEM_IUPAC_TRADITIONAL_NAME>
(4R)-5-(2-ketopyrrolidin-3-yl)-4-[[(2S)-4-methyl-2-[[(2S)-3-methyl-2-[[(2S)-2-[(5-methylisoxazole-3-carbonyl)amino]propanoyl]amino]butanoyl]amino]pentanoyl]amino]valeric acid benzyl ester

> <PUBCHEM_IUPAC_INCHI>
InChI=1S/C35H50N6O8/c1-20(2)16-27(39-35(47)30(21(3)4)40-31(43)23(6)37-34(46)28-17-22(5)49-41-28)33(45)38-26(18-25-14-15-36-32(25)44)12-13-29(42)48-19-24-10-8-7-9-11-24/h7-11,17,20-21,23,25-27,30H,12-16,18-19H2,1-6H3,(H,36,44)(H,37,46)(H,38,45)(H,39,47)(H,40,43)/t23-,25?,26+,27-,30-/m0/s1

> <PUBCHEM_IUPAC_INCHIKEY>
SWXGTZNJNNYPBX-MHNXYZAVSA-N

> <PUBCHEM_XLOGP3_AA>
3.4

> <PUBCHEM_EXACT_MASS>
682.369013

> <PUBCHEM_MOLECULAR_FORMULA>
C35H50N6O8

> <PUBCHEM_MOLECULAR_WEIGHT>
682.8

> <PUBCHEM_OPENEYE_CAN_SMILES>
CC1=CC(=NO1)C(=O)NC(C)C(=O)NC(C(C)C)C(=O)NC(CC(C)C)C(=O)NC(CCC(=O)OCC2=CC=CC=C2)CC3CCNC3=O

> <PUBCHEM_OPENEYE_ISO_SMILES>
CC1=CC(=NO1)C(=O)N[C@@H](C)C(=O)N[C@@H](C(C)C)C(=O)N[C@@H](CC(C)C)C(=O)N[C@H](CCC(=O)OCC2=CC=CC=C2)CC3CCNC3=O

> <PUBCHEM_CACTVS_TPSA>
198

> <PUBCHEM_MONOISOTOPIC_WEIGHT>
682.369013

> <PUBCHEM_TOTAL_CHARGE>
0

> <PUBCHEM_HEAVY_ATOM_COUNT>
49

> <PUBCHEM_ATOM_DEF_STEREO_COUNT>
4

> <PUBCHEM_ATOM_UDEF_STEREO_COUNT>
1

> <PUBCHEM_BOND_DEF_STEREO_COUNT>
0

> <PUBCHEM_BOND_UDEF_STEREO_COUNT>
0

> <PUBCHEM_ISOTOPIC_ATOM_COUNT>
0

> <PUBCHEM_COMPONENT_COUNT>
1

> <PUBCHEM_CACTVS_TAUTO_COUNT>
-1

> <PUBCHEM_COORDINATE_TYPE>
1
5
255

> <PUBCHEM_BONDANNOTATIONS>
22  11  5
27  12  5
36  13  6
14  43  8
15  16  3
39  41  8
39  42  8
41  44  8
42  45  8
43  47  8
44  46  8
45  46  8
47  48  8
8  14  8
8  48  8
17  9  5

$$$$
46398808
  -OEChem-02212016592D

101103  0     1  0  0  0  0  0999 V2000
   13.3364    2.3557    0.0000 O   0  0  0  0  0  0  0  0  0  0  0  0
   10.5109    1.6920    0.0000 O   0  0  0  0  0  0  0  0  0  0  0  0
   10.5109   -2.3080    0.0000 O   0  0  0  0  0  0  0  0  0  0  0  0
    9.6448   -0.8080    0.0000 O   0  0  0  0  0  0  0  0  0  0  0  0
    9.6448    2.1920    0.0000 O   0  0  0  0  0  0  0  0  0  0  0  0
    7.0468    4.6920    0.0000 O   0  0  0  0  0  0  0  0  0  0  0  0
    4.4487    2.1920    0.0000 O   0  0  0  0  0  0  0  0  0  0  0  0
    2.0000    4.0284    0.0000 O   0  0  0  0  0  0  0  0  0  0  0  0
   15.0577    1.8944    0.0000 N   0  0  0  0  0  0  0  0  0  0  0  0
   12.2429    1.6920    0.0000 N   0  0  0  0  0  0  0  0  0  0  0  0
   10.5109    3.6920    0.0000 N   0  0  0  0  0  0  0  0  0  0  0  0
    7.9128    3.1920    0.0000 N   0  0  0  0  0  0  0  0  0  0  0  0
    5.3147    3.6920    0.0000 N   0  0  0  0  0  0  0  0  0  0  0  0
    2.6691    3.2853    0.0000 N   0  0  0  0  0  0  0  0  0  0  0  0
   13.9750    0.6920    0.0000 C   0  0  2  0  0  0  0  0  0  0  0  0
   13.1090    0.1920    0.0000 C   0  0  0  0  0  0  0  0  0  0  0  0
   14.8885    0.2853    0.0000 C   0  0  0  0  0  0  0  0  0  0  0  0
   14.0795    1.6865    0.0000 C   0  0  2  0  0  0  0  0  0  0  0  0
   12.2429    0.6920    0.0000 C   0  0  1  0  0  0  0  0  0  0  0  0
   15.5577    1.0284    0.0000 C   0  0  0  0  0  0  0  0  0  0  0  0
   11.3769    0.1920    0.0000 C   0  0  0  0  0  0  0  0  0  0  0  0
   11.3769   -0.8080    0.0000 C   0  0  0  0  0  0  0  0  0  0  0  0
   11.3769    2.1920    0.0000 C   0  0  0  0  0  0  0  0  0  0  0  0
   11.3769    3.1920    0.0000 C   0  0  2  0  0  0  0  0  0  0  0  0
   12.2429    3.6920    0.0000 C   0  0  0  0  0  0  0  0  0  0  0  0
   12.2429    4.6920    0.0000 C   0  0  0  0  0  0  0  0  0  0  0  0
   10.5109   -1.3080    0.0000 C   0  0  0  0  0  0  0  0  0  0  0  0
    8.7788    3.6920    0.0000 C   0  0  2  0  0  0  0  0  0  0  0  0
    9.6448    3.1920    0.0000 C   0  0  0  0  0  0  0  0  0  0  0  0
   13.1090    5.1920    0.0000 C   0  0  0  0  0  0  0  0  0  0  0  0
   11.3769    5.1920    0.0000 C   0  0  0  0  0  0  0  0  0  0  0  0
    8.7788    4.6920    0.0000 C   0  0  0  0  0  0  0  0  0  0  0  0
    7.9128    5.1920    0.0000 C   0  0  0  0  0  0  0  0  0  0  0  0
    9.6448    5.1920    0.0000 C   0  0  0  0  0  0  0  0  0  0  0  0
    9.6448   -2.8080    0.0000 C   0  0  0  0  0  0  0  0  0  0  0  0
    7.0468    3.6920    0.0000 C   0  0  0  0  0  0  0  0  0  0  0  0
    6.1808    3.1920    0.0000 C   0  0  2  0  0  0  0  0  0  0  0  0
    9.6448   -3.8080    0.0000 C   0  0  0  0  0  0  0  0  0  0  0  0
    6.1808    2.1920    0.0000 C   0  0  0  0  0  0  0  0  0  0  0  0
    8.7788   -4.3080    0.0000 C   0  0  0  0  0  0  0  0  0  0  0  0
   10.5109   -4.3080    0.0000 C   0  0  0  0  0  0  0  0  0  0  0  0
    4.4487    3.1920    0.0000 C   0  0  0  0  0  0  0  0  0  0  0  0
    8.7788   -5.3080    0.0000 C   0  0  0  0  0  0  0  0  0  0  0  0
   10.5109   -5.3080    0.0000 C   0  0  0  0  0  0  0  0  0  0  0  0
    9.6448   -5.8080    0.0000 C   0  0  0  0  0  0  0  0  0  0  0  0
    3.5827    3.6920    0.0000 C   0  0  0  0  0  0  0  0  0  0  0  0
    3.4782    4.6865    0.0000 C   0  0  0  0  0  0  0  0  0  0  0  0
    2.5000    4.8944    0.0000 C   0  0  0  0  0  0  0  0  0  0  0  0
    2.0933    5.8080    0.0000 C   0  0  0  0  0  0  0  0  0  0  0  0
   14.0074    0.0729    0.0000 H   0  0  0  0  0  0  0  0  0  0  0  0
   12.7104   -0.2829    0.0000 H   0  0  0  0  0  0  0  0  0  0  0  0
   13.5075   -0.2829    0.0000 H   0  0  0  0  0  0  0  0  0  0  0  0
   14.5785   -0.2517    0.0000 H   0  0  0  0  0  0  0  0  0  0  0  0
   15.3901   -0.0792    0.0000 H   0  0  0  0  0  0  0  0  0  0  0  0
   14.2400    2.2854    0.0000 H   0  0  0  0  0  0  0  0  0  0  0  0
   12.7799    1.0020    0.0000 H   0  0  0  0  0  0  0  0  0  0  0  0
   15.9725    0.5677    0.0000 H   0  0  0  0  0  0  0  0  0  0  0  0
   16.0592    1.3928    0.0000 H   0  0  0  0  0  0  0  0  0  0  0  0
   15.3098    2.4608    0.0000 H   0  0  0  0  0  0  0  0  0  0  0  0
   11.1649    0.7746    0.0000 H   0  0  0  0  0  0  0  0  0  0  0  0
   10.7663    0.0843    0.0000 H   0  0  0  0  0  0  0  0  0  0  0  0
   12.7799    2.0020    0.0000 H   0  0  0  0  0  0  0  0  0  0  0  0
   13.4653    2.9621    0.0000 H   0  0  0  0  0  0  0  0  0  0  0  0
   11.5890   -1.3906    0.0000 H   0  0  0  0  0  0  0  0  0  0  0  0
   11.9875   -0.7003    0.0000 H   0  0  0  0  0  0  0  0  0  0  0  0
   10.8400    2.8820    0.0000 H   0  0  0  0  0  0  0  0  0  0  0  0
   12.4550    3.1094    0.0000 H   0  0  0  0  0  0  0  0  0  0  0  0
   12.8535    3.7997    0.0000 H   0  0  0  0  0  0  0  0  0  0  0  0
   12.7799    4.3820    0.0000 H   0  0  0  0  0  0  0  0  0  0  0  0
   10.5109    4.3120    0.0000 H   0  0  0  0  0  0  0  0  0  0  0  0
    8.2419    4.0020    0.0000 H   0  0  0  0  0  0  0  0  0  0  0  0
   13.4190    4.6551    0.0000 H   0  0  0  0  0  0  0  0  0  0  0  0
   13.6459    5.5020    0.0000 H   0  0  0  0  0  0  0  0  0  0  0  0
   12.7990    5.7290    0.0000 H   0  0  0  0  0  0  0  0  0  0  0  0
   11.6869    5.7290    0.0000 H   0  0  0  0  0  0  0  0  0  0  0  0
   10.8400    5.5020    0.0000 H   0  0  0  0  0  0  0  0  0  0  0  0
   11.0669    4.6551    0.0000 H   0  0  0  0  0  0  0  0  0  0  0  0
    9.3158    4.3820    0.0000 H   0  0  0  0  0  0  0  0  0  0  0  0
    7.9128    2.5720    0.0000 H   0  0  0  0  0  0  0  0  0  0  0  0
    8.2228    5.7290    0.0000 H   0  0  0  0  0  0  0  0  0  0  0  0
    7.3759    5.5020    0.0000 H   0  0  0  0  0  0  0  0  0  0  0  0
    7.6028    4.6551    0.0000 H   0  0  0  0  0  0  0  0  0  0  0  0
    9.9548    4.6551    0.0000 H   0  0  0  0  0  0  0  0  0  0  0  0
   10.1818    5.5020    0.0000 H   0  0  0  0  0  0  0  0  0  0  0  0
    9.3348    5.7290    0.0000 H   0  0  0  0  0  0  0  0  0  0  0  0
    9.4328   -2.2254    0.0000 H   0  0  0  0  0  0  0  0  0  0  0  0
    9.0343   -2.9156    0.0000 H   0  0  0  0  0  0  0  0  0  0  0  0
    6.1808    3.8120    0.0000 H   0  0  0  0  0  0  0  0  0  0  0  0
    5.5608    2.1920    0.0000 H   0  0  0  0  0  0  0  0  0  0  0  0
    6.1808    1.5720    0.0000 H   0  0  0  0  0  0  0  0  0  0  0  0
    6.8008    2.1920    0.0000 H   0  0  0  0  0  0  0  0  0  0  0  0
    5.3147    4.3120    0.0000 H   0  0  0  0  0  0  0  0  0  0  0  0
    8.2419   -3.9980    0.0000 H   0  0  0  0  0  0  0  0  0  0  0  0
   11.0478   -3.9980    0.0000 H   0  0  0  0  0  0  0  0  0  0  0  0
    8.2419   -5.6180    0.0000 H   0  0  0  0  0  0  0  0  0  0  0  0
   11.0478   -5.6180    0.0000 H   0  0  0  0  0  0  0  0  0  0  0  0
    9.6448   -6.4280    0.0000 H   0  0  0  0  0  0  0  0  0  0  0  0
    3.9389    5.1014    0.0000 H   0  0  0  0  0  0  0  0  0  0  0  0
    2.6597    6.0602    0.0000 H   0  0  0  0  0  0  0  0  0  0  0  0
    1.8411    6.3744    0.0000 H   0  0  0  0  0  0  0  0  0  0  0  0
    1.5269    5.5558    0.0000 H   0  0  0  0  0  0  0  0  0  0  0  0
 18  1  1  6  0  0  0
  1 63  1  0  0  0  0
  2 23  2  0  0  0  0
  3 27  1  0  0  0  0
  3 35  1  0  0  0  0
  4 27  2  0  0  0  0
  5 29  2  0  0  0  0
  6 36  2  0  0  0  0
  7 42  2  0  0  0  0
  8 14  1  0  0  0  0
  8 48  1  0  0  0  0
  9 18  1  0  0  0  0
  9 20  1  0  0  0  0
  9 59  1  0  0  0  0
 19 10  1  1  0  0  0
 10 23  1  0  0  0  0
 10 62  1  0  0  0  0
 24 11  1  1  0  0  0
 11 29  1  0  0  0  0
 11 70  1  0  0  0  0
 28 12  1  1  0  0  0
 12 36  1  0  0  0  0
 12 79  1  0  0  0  0
 37 13  1  6  0  0  0
 13 42  1  0  0  0  0
 13 92  1  0  0  0  0
 14 46  2  0  0  0  0
 15 16  1  1  0  0  0
 15 17  1  0  0  0  0
 15 18  1  0  0  0  0
 15 50  1  0  0  0  0
 16 19  1  0  0  0  0
 16 51  1  0  0  0  0
 16 52  1  0  0  0  0
 17 20  1  0  0  0  0
 17 53  1  0  0  0  0
 17 54  1  0  0  0  0
 18 55  1  0  0  0  0
 19 21  1  0  0  0  0
 19 56  1  0  0  0  0
 20 57  1  0  0  0  0
 20 58  1  0  0  0  0
 21 22  1  0  0  0  0
 21 60  1  0  0  0  0
 21 61  1  0  0  0  0
 22 27  1  0  0  0  0
 22 64  1  0  0  0  0
 22 65  1  0  0  0  0
 23 24  1  0  0  0  0
 24 25  1  0  0  0  0
 24 66  1  0  0  0  0
 25 26  1  0  0  0  0
 25 67  1  0  0  0  0
 25 68  1  0  0  0  0
 26 30  1  0  0  0  0
 26 31  1  0  0  0  0
 26 69  1  0  0  0  0
 28 29  1  0  0  0  0
 28 32  1  0  0  0  0
 28 71  1  0  0  0  0
 30 72  1  0  0  0  0
 30 73  1  0  0  0  0
 30 74  1  0  0  0  0
 31 75  1  0  0  0  0
 31 76  1  0  0  0  0
 31 77  1  0  0  0  0
 32 33  1  0  0  0  0
 32 34  1  0  0  0  0
 32 78  1  0  0  0  0
 33 80  1  0  0  0  0
 33 81  1  0  0  0  0
 33 82  1  0  0  0  0
 34 83  1  0  0  0  0
 34 84  1  0  0  0  0
 34 85  1  0  0  0  0
 35 38  1  0  0  0  0
 35 86  1  0  0  0  0
 35 87  1  0  0  0  0
 36 37  1  0  0  0  0
 37 39  1  0  0  0  0
 37 88  1  0  0  0  0
 38 40  2  0  0  0  0
 38 41  1  0  0  0  0
 39 89  1  0  0  0  0
 39 90  1  0  0  0  0
 39 91  1  0  0  0  0
 40 43  1  0  0  0  0
 40 93  1  0  0  0  0
 41 44  2  0  0  0  0
 41 94  1  0  0  0  0
 42 46  1  0  0  0  0
 43 45  2  0  0  0  0
 43 95  1  0  0  0  0
 44 45  1  0  0  0  0
 44 96  1  0  0  0  0
 45 97  1  0  0  0  0
 46 47  1  0  0  0  0
 47 48  2  0  0  0  0
 47 98  1  0  0  0  0
 48 49  1  0  0  0  0
 49 99  1  0  0  0  0
 49100  1  0  0  0  0
 49101  1  0  0  0  0
M  END
> <PUBCHEM_COMPOUND_CID>
46398808

> <PUBCHEM_COMPOUND_CANONICALIZED>
1

> <PUBCHEM_CACTVS_COMPLEXITY>
1100

> <PUBCHEM_CACTVS_HBOND_ACCEPTOR>
10

> <PUBCHEM_CACTVS_HBOND_DONOR>
6

> <PUBCHEM_CACTVS_ROTATABLE_BOND>
19

> <PUBCHEM_CACTVS_SUBSKEYS>
AAADcfB/vAAAAAAAAAAAAAAAAAAAAWLAAAAwAAAAAAAAAAABwAAAHgAUCAAADSzhngYyjJLQBgCpA6XyWgCCAAAmIgAomKG+bNsIdjqAtbuWcYhm1hmI6ce/yOCOAAAAAAAAAAAAAAAAAAAAAAAAAAAAAA==

> <PUBCHEM_IUPAC_OPENEYE_NAME>
benzyl (4R)-5-[(2S,3S)-2-hydroxypyrrolidin-3-yl]-4-[[(2S)-4-methyl-2-[[(2S)-3-methyl-2-[[(2S)-2-[(5-methylisoxazole-3-carbonyl)amino]propanoyl]amino]butanoyl]amino]pentanoyl]amino]pentanoate

> <PUBCHEM_IUPAC_CAS_NAME>
(4R)-5-[(2S,3S)-2-hydroxy-3-pyrrolidinyl]-4-[[(2S)-4-methyl-2-[[(2S)-3-methyl-2-[[(2S)-2-[[(5-methyl-3-isoxazolyl)-oxomethyl]amino]-1-oxopropyl]amino]-1-oxobutyl]amino]-1-oxopentyl]amino]pentanoic acid (phenylmethyl) ester

> <PUBCHEM_IUPAC_NAME_MARKUP>
benzyl (4<I>R</I>)-5-[(2<I>S</I>,3<I>S</I>)-2-hydroxypyrrolidin-3-yl]-4-[[(2<I>S</I>)-4-methyl-2-[[(2<I>S</I>)-3-methyl-2-[[(2<I>S</I>)-2-[(5-methyl-1,2-oxazole-3-carbonyl)amino]propanoyl]amino]butanoyl]amino]pentanoyl]amino]pentanoate

> <PUBCHEM_IUPAC_NAME>
benzyl (4R)-5-[(2S,3S)-2-hydroxypyrrolidin-3-yl]-4-[[(2S)-4-methyl-2-[[(2S)-3-methyl-2-[[(2S)-2-[(5-methyl-1,2-oxazole-3-carbonyl)amino]propanoyl]amino]butanoyl]amino]pentanoyl]amino]pentanoate

> <PUBCHEM_IUPAC_SYSTEMATIC_NAME>
(phenylmethyl) (4R)-4-[[(2S)-4-methyl-2-[[(2S)-3-methyl-2-[[(2S)-2-[(5-methyl-1,2-oxazol-3-yl)carbonylamino]propanoyl]amino]butanoyl]amino]pentanoyl]amino]-5-[(2S,3S)-2-oxidanylpyrrolidin-3-yl]pentanoate

> <PUBCHEM_IUPAC_TRADITIONAL_NAME>
(4R)-5-[(2S,3S)-2-hydroxypyrrolidin-3-yl]-4-[[(2S)-4-methyl-2-[[(2S)-3-methyl-2-[[(2S)-2-[(5-methylisoxazole-3-carbonyl)amino]propanoyl]amino]butanoyl]amino]pentanoyl]amino]valeric acid benzyl ester

> <PUBCHEM_IUPAC_INCHI>
InChI=1S/C35H52N6O8/c1-20(2)16-27(39-35(47)30(21(3)4)40-31(43)23(6)37-34(46)28-17-22(5)49-41-28)33(45)38-26(18-25-14-15-36-32(25)44)12-13-29(42)48-19-24-10-8-7-9-11-24/h7-11,17,20-21,23,25-27,30,32,36,44H,12-16,18-19H2,1-6H3,(H,37,46)(H,38,45)(H,39,47)(H,40,43)/t23-,25-,26+,27-,30-,32-/m0/s1

> <PUBCHEM_IUPAC_INCHIKEY>
LHGYKGNIGNZJSJ-CLMLZYDKSA-N

> <PUBCHEM_XLOGP3_AA>
3.4

> <PUBCHEM_EXACT_MASS>
684.384663

> <PUBCHEM_MOLECULAR_FORMULA>
C35H52N6O8

> <PUBCHEM_MOLECULAR_WEIGHT>
684.8

> <PUBCHEM_OPENEYE_CAN_SMILES>
CC1=CC(=NO1)C(=O)NC(C)C(=O)NC(C(C)C)C(=O)NC(CC(C)C)C(=O)NC(CCC(=O)OCC2=CC=CC=C2)CC3CCNC3O

> <PUBCHEM_OPENEYE_ISO_SMILES>
CC1=CC(=NO1)C(=O)N[C@@H](C)C(=O)N[C@@H](C(C)C)C(=O)N[C@@H](CC(C)C)C(=O)N[C@H](CCC(=O)OCC2=CC=CC=C2)C[C@@H]3CCN[C@H]3O

> <PUBCHEM_CACTVS_TPSA>
201

> <PUBCHEM_MONOISOTOPIC_WEIGHT>
684.384663

> <PUBCHEM_TOTAL_CHARGE>
0

> <PUBCHEM_HEAVY_ATOM_COUNT>
49

> <PUBCHEM_ATOM_DEF_STEREO_COUNT>
6

> <PUBCHEM_ATOM_UDEF_STEREO_COUNT>
0

> <PUBCHEM_BOND_DEF_STEREO_COUNT>
0

> <PUBCHEM_BOND_UDEF_STEREO_COUNT>
0

> <PUBCHEM_ISOTOPIC_ATOM_COUNT>
0

> <PUBCHEM_COMPONENT_COUNT>
1

> <PUBCHEM_CACTVS_TAUTO_COUNT>
-1

> <PUBCHEM_COORDINATE_TYPE>
1
5
255

> <PUBCHEM_BONDANNOTATIONS>
18  1  6
19  10  5
24  11  5
28  12  5
37  13  6
14  46  8
15  16  5
38  40  8
38  41  8
40  43  8
41  44  8
43  45  8
44  45  8
46  47  8
47  48  8
8  14  8
8  48  8

$$$$
46936345
  -OEChem-02212016592D

 84 86  0     1  0  0  0  0  0999 V2000
    4.6261   -5.2702    0.0000 F   0  0  0  0  0  0  0  0  0  0  0  0
    2.0000    3.5086    0.0000 O   0  0  0  0  0  0  0  0  0  0  0  0
    6.3582    0.7298    0.0000 O   0  0  0  0  0  0  0  0  0  0  0  0
    7.2242    0.2298    0.0000 O   0  0  0  0  0  0  0  0  0  0  0  0
    7.2242    3.2298    0.0000 O   0  0  0  0  0  0  0  0  0  0  0  0
    6.3582    4.7298    0.0000 O   0  0  0  0  0  0  0  0  0  0  0  0
    9.8222   -2.2702    0.0000 O   0  0  0  0  0  0  0  0  0  0  0  0
   12.2710   -0.4338    0.0000 O   0  0  0  0  0  0  0  0  0  0  0  0
    4.6261    0.7298    0.0000 N   0  0  0  0  0  0  0  0  0  0  0  0
    3.2601    4.7686    0.0000 N   0  0  0  0  0  0  0  0  0  0  0  0
    8.9562   -0.7702    0.0000 N   0  0  0  0  0  0  0  0  0  0  0  0
   11.6018   -1.1770    0.0000 N   0  0  0  0  0  0  0  0  0  0  0  0
    3.7601    3.2298    0.0000 C   0  0  2  0  0  0  0  0  0  0  0  0
    3.7601    2.2298    0.0000 C   0  0  0  0  0  0  0  0  0  0  0  0
    4.6261    1.7298    0.0000 C   0  0  2  0  0  0  0  0  0  0  0  0
    4.5691    3.8176    0.0000 C   0  0  0  0  0  0  0  0  0  0  0  0
    4.2601    4.7686    0.0000 C   0  0  0  0  0  0  0  0  0  0  0  0
    5.4921    2.2298    0.0000 C   0  0  0  0  0  0  0  0  0  0  0  0
    2.9511    3.8176    0.0000 C   0  0  0  0  0  0  0  0  0  0  0  0
    5.4921   -0.7702    0.0000 C   0  0  1  0  0  0  0  0  0  0  0  0
    5.4921    0.2298    0.0000 C   0  0  0  0  0  0  0  0  0  0  0  0
    6.3582   -1.2702    0.0000 C   0  0  0  0  0  0  0  0  0  0  0  0
    5.4921    3.2298    0.0000 C   0  0  0  0  0  0  0  0  0  0  0  0
    4.6261   -1.2702    0.0000 C   0  0  0  0  0  0  0  0  0  0  0  0
    8.0902   -1.2702    0.0000 C   0  0  2  0  0  0  0  0  0  0  0  0
    7.2242   -0.7702    0.0000 C   0  0  0  0  0  0  0  0  0  0  0  0
    8.0902   -2.2702    0.0000 C   0  0  0  0  0  0  0  0  0  0  0  0
    4.6261   -2.2702    0.0000 C   0  0  0  0  0  0  0  0  0  0  0  0
    6.3582    3.7298    0.0000 C   0  0  0  0  0  0  0  0  0  0  0  0
    8.9562   -2.7702    0.0000 C   0  0  0  0  0  0  0  0  0  0  0  0
    7.2242   -2.7702    0.0000 C   0  0  0  0  0  0  0  0  0  0  0  0
    5.4921   -2.7702    0.0000 C   0  0  0  0  0  0  0  0  0  0  0  0
    3.7601   -2.7702    0.0000 C   0  0  0  0  0  0  0  0  0  0  0  0
    9.8222   -1.2702    0.0000 C   0  0  0  0  0  0  0  0  0  0  0  0
    5.4921   -3.7702    0.0000 C   0  0  0  0  0  0  0  0  0  0  0  0
    3.7601   -3.7702    0.0000 C   0  0  0  0  0  0  0  0  0  0  0  0
    4.6261   -4.2702    0.0000 C   0  0  0  0  0  0  0  0  0  0  0  0
    8.0902    3.7298    0.0000 C   0  0  0  0  0  0  0  0  0  0  0  0
   10.6883   -0.7702    0.0000 C   0  0  0  0  0  0  0  0  0  0  0  0
    8.9562    3.2298    0.0000 C   0  0  0  0  0  0  0  0  0  0  0  0
   10.7928    0.2243    0.0000 C   0  0  0  0  0  0  0  0  0  0  0  0
   11.7710    0.4322    0.0000 C   0  0  0  0  0  0  0  0  0  0  0  0
   12.1777    1.3458    0.0000 C   0  0  0  0  0  0  0  0  0  0  0  0
    4.3125    2.9483    0.0000 H   0  0  0  0  0  0  0  0  0  0  0  0
    3.1495    2.3374    0.0000 H   0  0  0  0  0  0  0  0  0  0  0  0
    3.5480    1.6472    0.0000 H   0  0  0  0  0  0  0  0  0  0  0  0
    5.1630    1.4198    0.0000 H   0  0  0  0  0  0  0  0  0  0  0  0
    4.8791    3.2806    0.0000 H   0  0  0  0  0  0  0  0  0  0  0  0
    5.1355    4.0698    0.0000 H   0  0  0  0  0  0  0  0  0  0  0  0
    4.8665    4.8975    0.0000 H   0  0  0  0  0  0  0  0  0  0  0  0
    4.1953    5.3852    0.0000 H   0  0  0  0  0  0  0  0  0  0  0  0
    5.7042    1.6472    0.0000 H   0  0  0  0  0  0  0  0  0  0  0  0
    6.1027    2.3374    0.0000 H   0  0  0  0  0  0  0  0  0  0  0  0
    4.0892    0.4198    0.0000 H   0  0  0  0  0  0  0  0  0  0  0  0
    6.0291   -0.4602    0.0000 H   0  0  0  0  0  0  0  0  0  0  0  0
    2.8956    5.2702    0.0000 H   0  0  0  0  0  0  0  0  0  0  0  0
    5.9596   -1.7452    0.0000 H   0  0  0  0  0  0  0  0  0  0  0  0
    6.7567   -1.7452    0.0000 H   0  0  0  0  0  0  0  0  0  0  0  0
    5.2801    3.8124    0.0000 H   0  0  0  0  0  0  0  0  0  0  0  0
    4.8815    3.1221    0.0000 H   0  0  0  0  0  0  0  0  0  0  0  0
    4.4140   -0.6876    0.0000 H   0  0  0  0  0  0  0  0  0  0  0  0
    4.0155   -1.3779    0.0000 H   0  0  0  0  0  0  0  0  0  0  0  0
    8.0902   -0.6502    0.0000 H   0  0  0  0  0  0  0  0  0  0  0  0
    8.0902   -2.8902    0.0000 H   0  0  0  0  0  0  0  0  0  0  0  0
    8.9562   -0.1502    0.0000 H   0  0  0  0  0  0  0  0  0  0  0  0
    8.6462   -3.3072    0.0000 H   0  0  0  0  0  0  0  0  0  0  0  0
    9.4932   -3.0802    0.0000 H   0  0  0  0  0  0  0  0  0  0  0  0
    9.2662   -2.2333    0.0000 H   0  0  0  0  0  0  0  0  0  0  0  0
    6.9142   -2.2333    0.0000 H   0  0  0  0  0  0  0  0  0  0  0  0
    6.6872   -3.0802    0.0000 H   0  0  0  0  0  0  0  0  0  0  0  0
    7.5342   -3.3072    0.0000 H   0  0  0  0  0  0  0  0  0  0  0  0
    6.0291   -2.4602    0.0000 H   0  0  0  0  0  0  0  0  0  0  0  0
    3.2231   -2.4602    0.0000 H   0  0  0  0  0  0  0  0  0  0  0  0
    6.0291   -4.0802    0.0000 H   0  0  0  0  0  0  0  0  0  0  0  0
    3.2231   -4.0802    0.0000 H   0  0  0  0  0  0  0  0  0  0  0  0
    8.4887    4.2047    0.0000 H   0  0  0  0  0  0  0  0  0  0  0  0
    7.6917    4.2047    0.0000 H   0  0  0  0  0  0  0  0  0  0  0  0
    8.6462    2.6928    0.0000 H   0  0  0  0  0  0  0  0  0  0  0  0
    9.4932    2.9198    0.0000 H   0  0  0  0  0  0  0  0  0  0  0  0
    9.2662    3.7667    0.0000 H   0  0  0  0  0  0  0  0  0  0  0  0
   10.3321    0.6392    0.0000 H   0  0  0  0  0  0  0  0  0  0  0  0
   12.7441    1.0936    0.0000 H   0  0  0  0  0  0  0  0  0  0  0  0
   12.4299    1.9122    0.0000 H   0  0  0  0  0  0  0  0  0  0  0  0
   11.6113    1.5979    0.0000 H   0  0  0  0  0  0  0  0  0  0  0  0
  1 37  1  0  0  0  0
  2 19  2  0  0  0  0
  3 21  2  0  0  0  0
  4 26  2  0  0  0  0
  5 29  1  0  0  0  0
  5 38  1  0  0  0  0
  6 29  2  0  0  0  0
  7 34  2  0  0  0  0
  8 12  1  0  0  0  0
  8 42  1  0  0  0  0
 15  9  1  6  0  0  0
  9 21  1  0  0  0  0
  9 54  1  0  0  0  0
 10 17  1  0  0  0  0
 10 19  1  0  0  0  0
 10 56  1  0  0  0  0
 25 11  1  1  0  0  0
 11 34  1  0  0  0  0
 11 65  1  0  0  0  0
 12 39  2  0  0  0  0
 13 14  1  1  0  0  0
 13 16  1  0  0  0  0
 13 19  1  0  0  0  0
 13 44  1  0  0  0  0
 14 15  1  0  0  0  0
 14 45  1  0  0  0  0
 14 46  1  0  0  0  0
 15 18  1  0  0  0  0
 15 47  1  0  0  0  0
 16 17  1  0  0  0  0
 16 48  1  0  0  0  0
 16 49  1  0  0  0  0
 17 50  1  0  0  0  0
 17 51  1  0  0  0  0
 18 23  1  0  0  0  0
 18 52  1  0  0  0  0
 18 53  1  0  0  0  0
 20 21  1  0  0  0  0
 20 22  1  1  0  0  0
 20 24  1  0  0  0  0
 20 55  1  0  0  0  0
 22 26  1  0  0  0  0
 22 57  1  0  0  0  0
 22 58  1  0  0  0  0
 23 29  1  0  0  0  0
 23 59  1  0  0  0  0
 23 60  1  0  0  0  0
 24 28  1  0  0  0  0
 24 61  1  0  0  0  0
 24 62  1  0  0  0  0
 25 26  1  0  0  0  0
 25 27  1  0  0  0  0
 25 63  1  0  0  0  0
 27 30  1  0  0  0  0
 27 31  1  0  0  0  0
 27 64  1  0  0  0  0
 28 32  2  0  0  0  0
 28 33  1  0  0  0  0
 30 66  1  0  0  0  0
 30 67  1  0  0  0  0
 30 68  1  0  0  0  0
 31 69  1  0  0  0  0
 31 70  1  0  0  0  0
 31 71  1  0  0  0  0
 32 35  1  0  0  0  0
 32 72  1  0  0  0  0
 33 36  2  0  0  0  0
 33 73  1  0  0  0  0
 34 39  1  0  0  0  0
 35 37  2  0  0  0  0
 35 74  1  0  0  0  0
 36 37  1  0  0  0  0
 36 75  1  0  0  0  0
 38 40  1  0  0  0  0
 38 76  1  0  0  0  0
 38 77  1  0  0  0  0
 39 41  1  0  0  0  0
 40 78  1  0  0  0  0
 40 79  1  0  0  0  0
 40 80  1  0  0  0  0
 41 42  2  0  0  0  0
 41 81  1  0  0  0  0
 42 43  1  0  0  0  0
 43 82  1  0  0  0  0
 43 83  1  0  0  0  0
 43 84  1  0  0  0  0
M  END
> <PUBCHEM_COMPOUND_CID>
46936345

> <PUBCHEM_COMPOUND_CANONICALIZED>
1

> <PUBCHEM_CACTVS_COMPLEXITY>
972

> <PUBCHEM_CACTVS_HBOND_ACCEPTOR>
9

> <PUBCHEM_CACTVS_HBOND_DONOR>
3

> <PUBCHEM_CACTVS_ROTATABLE_BOND>
17

> <PUBCHEM_CACTVS_SUBSKEYS>
AAADcfB7uQAAAAAAAAAAAAAAAAAAAWLAAAAwAAAAAAAAAAABwAAAHwAUAAAADSzhng4yjJLQBACpA6XyWgCCAAAmIgAomKG+bNoIZjqAlbOWMYhmlhiIyce/yeCeAAAAAAAAAAAAAAAAAAAAAAAAAAAAAA==

> <PUBCHEM_IUPAC_OPENEYE_NAME>
ethyl (4S)-4-[[(2R,5S)-2-[(4-fluorophenyl)methyl]-6-methyl-5-[(5-methylisoxazole-3-carbonyl)amino]-4-oxo-heptanoyl]amino]-5-[(3S)-2-oxopyrrolidin-3-yl]pentanoate

> <PUBCHEM_IUPAC_CAS_NAME>
(4S)-4-[[(2R,5S)-2-[(4-fluorophenyl)methyl]-6-methyl-5-[[(5-methyl-3-isoxazolyl)-oxomethyl]amino]-1,4-dioxoheptyl]amino]-5-[(3S)-2-oxo-3-pyrrolidinyl]pentanoic acid ethyl ester

> <PUBCHEM_IUPAC_NAME_MARKUP>
ethyl (4<I>S</I>)-4-[[(2<I>R</I>,5<I>S</I>)-2-[(4-fluorophenyl)methyl]-6-methyl-5-[(5-methyl-1,2-oxazole-3-carbonyl)amino]-4-oxoheptanoyl]amino]-5-[(3<I>S</I>)-2-oxopyrrolidin-3-yl]pentanoate

> <PUBCHEM_IUPAC_NAME>
ethyl (4S)-4-[[(2R,5S)-2-[(4-fluorophenyl)methyl]-6-methyl-5-[(5-methyl-1,2-oxazole-3-carbonyl)amino]-4-oxoheptanoyl]amino]-5-[(3S)-2-oxopyrrolidin-3-yl]pentanoate

> <PUBCHEM_IUPAC_SYSTEMATIC_NAME>
ethyl (4S)-4-[[(2R,5S)-2-[(4-fluorophenyl)methyl]-6-methyl-5-[(5-methyl-1,2-oxazol-3-yl)carbonylamino]-4-oxidanylidene-heptanoyl]amino]-5-[(3S)-2-oxidanylidenepyrrolidin-3-yl]pentanoate

> <PUBCHEM_IUPAC_TRADITIONAL_NAME>
(4S)-4-[[(2R,5S)-2-(4-fluorobenzyl)-4-keto-6-methyl-5-[(5-methylisoxazole-3-carbonyl)amino]heptanoyl]amino]-5-[(3S)-2-ketopyrrolidin-3-yl]valeric acid ethyl ester

> <PUBCHEM_IUPAC_INCHI>
InChI=1S/C31H41FN4O7/c1-5-42-27(38)11-10-24(16-21-12-13-33-29(21)39)34-30(40)22(15-20-6-8-23(32)9-7-20)17-26(37)28(18(2)3)35-31(41)25-14-19(4)43-36-25/h6-9,14,18,21-22,24,28H,5,10-13,15-17H2,1-4H3,(H,33,39)(H,34,40)(H,35,41)/t21-,22+,24-,28-/m0/s1

> <PUBCHEM_IUPAC_INCHIKEY>
LMIUALQNZXJHOG-TYFYUWPDSA-N

> <PUBCHEM_XLOGP3_AA>
3.2

> <PUBCHEM_EXACT_MASS>
600.295928

> <PUBCHEM_MOLECULAR_FORMULA>
C31H41FN4O7

> <PUBCHEM_MOLECULAR_WEIGHT>
600.7

> <PUBCHEM_OPENEYE_CAN_SMILES>
CCOC(=O)CCC(CC1CCNC1=O)NC(=O)C(CC2=CC=C(C=C2)F)CC(=O)C(C(C)C)NC(=O)C3=NOC(=C3)C

> <PUBCHEM_OPENEYE_ISO_SMILES>
CCOC(=O)CC[C@@H](C[C@@H]1CCNC1=O)NC(=O)[C@H](CC2=CC=C(C=C2)F)CC(=O)[C@H](C(C)C)NC(=O)C3=NOC(=C3)C

> <PUBCHEM_CACTVS_TPSA>
157

> <PUBCHEM_MONOISOTOPIC_WEIGHT>
600.295928

> <PUBCHEM_TOTAL_CHARGE>
0

> <PUBCHEM_HEAVY_ATOM_COUNT>
43

> <PUBCHEM_ATOM_DEF_STEREO_COUNT>
4

> <PUBCHEM_ATOM_UDEF_STEREO_COUNT>
0

> <PUBCHEM_BOND_DEF_STEREO_COUNT>
0

> <PUBCHEM_BOND_UDEF_STEREO_COUNT>
0

> <PUBCHEM_ISOTOPIC_ATOM_COUNT>
0

> <PUBCHEM_COMPONENT_COUNT>
1

> <PUBCHEM_CACTVS_TAUTO_COUNT>
-1

> <PUBCHEM_COORDINATE_TYPE>
1
5
255

> <PUBCHEM_BONDANNOTATIONS>
25  11  5
12  39  8
13  14  5
20  22  5
28  32  8
28  33  8
32  35  8
33  36  8
35  37  8
36  37  8
39  41  8
41  42  8
8  12  8
8  42  8
15  9  6

$$$$
50984109
  -OEChem-02212016592D

 49 51  0     1  0  0  0  0  0999 V2000
    6.6804    1.9844    0.0000 O   0  0  0  0  0  0  0  0  0  0  0  0
    3.7320   -2.7589    0.0000 O   0  0  0  0  0  0  0  0  0  0  0  0
    4.1964    4.2049    0.0000 O   0  0  0  0  0  0  0  0  0  0  0  0
    2.8660   -1.2589    0.0000 O   0  0  0  0  0  0  0  0  0  0  0  0
    5.0981    1.2799    0.0000 N   0  0  0  0  0  0  0  0  0  0  0  0
    4.5981   -1.2589    0.0000 N   0  0  0  0  0  0  0  0  0  0  0  0
    4.3010    3.2104    0.0000 N   0  0  0  0  0  0  0  0  0  0  0  0
    4.5981   -0.2589    0.0000 C   0  0  3  0  0  0  0  0  0  0  0  0
    3.7891    0.3289    0.0000 C   0  0  0  0  0  0  0  0  0  0  0  0
    5.4071    0.3289    0.0000 C   0  0  0  0  0  0  0  0  0  0  0  0
    4.0981    1.2799    0.0000 C   0  0  0  0  0  0  0  0  0  0  0  0
    5.6859    2.0889    0.0000 C   0  0  0  0  0  0  0  0  0  0  0  0
    5.2791    3.0025    0.0000 C   0  0  0  0  0  0  0  0  0  0  0  0
    3.7320   -1.7589    0.0000 C   0  0  0  0  0  0  0  0  0  0  0  0
    5.7791    3.8685    0.0000 C   0  0  0  0  0  0  0  0  0  0  0  0
    5.1100    4.6116    0.0000 C   0  0  0  0  0  0  0  0  0  0  0  0
    5.3179    5.5898    0.0000 C   0  0  0  0  0  0  0  0  0  0  0  0
    4.5748    6.2589    0.0000 C   0  0  0  0  0  0  0  0  0  0  0  0
    6.2690    5.8988    0.0000 C   0  0  0  0  0  0  0  0  0  0  0  0
    2.8660   -3.2589    0.0000 C   0  0  0  0  0  0  0  0  0  0  0  0
    2.8660   -4.2589    0.0000 C   0  0  0  0  0  0  0  0  0  0  0  0
    2.0000   -4.7589    0.0000 C   0  0  0  0  0  0  0  0  0  0  0  0
    3.7320   -4.7589    0.0000 C   0  0  0  0  0  0  0  0  0  0  0  0
    2.0000   -5.7589    0.0000 C   0  0  0  0  0  0  0  0  0  0  0  0
    3.7320   -5.7589    0.0000 C   0  0  0  0  0  0  0  0  0  0  0  0
    2.8660   -6.2589    0.0000 C   0  0  0  0  0  0  0  0  0  0  0  0
    5.1505   -0.5404    0.0000 H   0  0  0  0  0  0  0  0  0  0  0  0
    3.2227    0.5810    0.0000 H   0  0  0  0  0  0  0  0  0  0  0  0
    3.4791   -0.2081    0.0000 H   0  0  0  0  0  0  0  0  0  0  0  0
    5.7171   -0.2081    0.0000 H   0  0  0  0  0  0  0  0  0  0  0  0
    5.9735    0.5810    0.0000 H   0  0  0  0  0  0  0  0  0  0  0  0
    4.1629    1.8965    0.0000 H   0  0  0  0  0  0  0  0  0  0  0  0
    3.4916    1.4088    0.0000 H   0  0  0  0  0  0  0  0  0  0  0  0
    5.1350   -1.5689    0.0000 H   0  0  0  0  0  0  0  0  0  0  0  0
    6.3957    3.9333    0.0000 H   0  0  0  0  0  0  0  0  0  0  0  0
    4.7282    5.3982    0.0000 H   0  0  0  0  0  0  0  0  0  0  0  0
    4.9896    6.7197    0.0000 H   0  0  0  0  0  0  0  0  0  0  0  0
    4.1140    6.6738    0.0000 H   0  0  0  0  0  0  0  0  0  0  0  0
    4.1599    5.7982    0.0000 H   0  0  0  0  0  0  0  0  0  0  0  0
    6.4605    5.3092    0.0000 H   0  0  0  0  0  0  0  0  0  0  0  0
    6.8586    6.0904    0.0000 H   0  0  0  0  0  0  0  0  0  0  0  0
    6.0774    6.4885    0.0000 H   0  0  0  0  0  0  0  0  0  0  0  0
    2.6540   -2.6763    0.0000 H   0  0  0  0  0  0  0  0  0  0  0  0
    2.2554   -3.3666    0.0000 H   0  0  0  0  0  0  0  0  0  0  0  0
    1.4631   -4.4489    0.0000 H   0  0  0  0  0  0  0  0  0  0  0  0
    4.2690   -4.4489    0.0000 H   0  0  0  0  0  0  0  0  0  0  0  0
    1.4631   -6.0689    0.0000 H   0  0  0  0  0  0  0  0  0  0  0  0
    4.2690   -6.0689    0.0000 H   0  0  0  0  0  0  0  0  0  0  0  0
    2.8660   -6.8789    0.0000 H   0  0  0  0  0  0  0  0  0  0  0  0
  1 12  2  0  0  0  0
  2 14  1  0  0  0  0
  2 20  1  0  0  0  0
  3  7  1  0  0  0  0
  3 16  1  0  0  0  0
  4 14  2  0  0  0  0
  5 10  1  0  0  0  0
  5 11  1  0  0  0  0
  5 12  1  0  0  0  0
  6  8  1  0  0  0  0
  6 14  1  0  0  0  0
  6 34  1  0  0  0  0
  7 13  2  0  0  0  0
  8  9  1  0  0  0  0
  8 10  1  0  0  0  0
  8 27  1  0  0  0  0
  9 11  1  0  0  0  0
  9 28  1  0  0  0  0
  9 29  1  0  0  0  0
 10 30  1  0  0  0  0
 10 31  1  0  0  0  0
 11 32  1  0  0  0  0
 11 33  1  0  0  0  0
 12 13  1  0  0  0  0
 13 15  1  0  0  0  0
 15 16  2  0  0  0  0
 15 35  1  0  0  0  0
 16 17  1  0  0  0  0
 17 18  1  0  0  0  0
 17 19  1  0  0  0  0
 17 36  1  0  0  0  0
 18 37  1  0  0  0  0
 18 38  1  0  0  0  0
 18 39  1  0  0  0  0
 19 40  1  0  0  0  0
 19 41  1  0  0  0  0
 19 42  1  0  0  0  0
 20 21  1  0  0  0  0
 20 43  1  0  0  0  0
 20 44  1  0  0  0  0
 21 22  2  0  0  0  0
 21 23  1  0  0  0  0
 22 24  1  0  0  0  0
 22 45  1  0  0  0  0
 23 25  2  0  0  0  0
 23 46  1  0  0  0  0
 24 26  2  0  0  0  0
 24 47  1  0  0  0  0
 25 26  1  0  0  0  0
 25 48  1  0  0  0  0
 26 49  1  0  0  0  0
M  END
> <PUBCHEM_COMPOUND_CID>
50984109

> <PUBCHEM_COMPOUND_CANONICALIZED>
1

> <PUBCHEM_CACTVS_COMPLEXITY>
493

> <PUBCHEM_CACTVS_HBOND_ACCEPTOR>
5

> <PUBCHEM_CACTVS_HBOND_DONOR>
1

> <PUBCHEM_CACTVS_ROTATABLE_BOND>
6

> <PUBCHEM_CACTVS_SUBSKEYS>
AAADceB7OAAAAAAAAAAAAAAAAAAAAWLAAAAwAAAAAAAAAAABwAAAHgAUAAAADSzhngYyjJPQBACpA6VyWgCCAAAmIgAomKG+bNsIZjqA9ZucMYhm1hmI6ce/yCAOAAAAAAAAAAAAAAAAAAAAAAAAAAAAAA==

> <PUBCHEM_IUPAC_OPENEYE_NAME>
benzyl N-[1-(5-isopropylisoxazole-3-carbonyl)pyrrolidin-3-yl]carbamate

> <PUBCHEM_IUPAC_CAS_NAME>
N-[1-[oxo-(5-propan-2-yl-3-isoxazolyl)methyl]-3-pyrrolidinyl]carbamic acid (phenylmethyl) ester

> <PUBCHEM_IUPAC_NAME_MARKUP>
benzyl <I>N</I>-[1-(5-propan-2-yl-1,2-oxazole-3-carbonyl)pyrrolidin-3-yl]carbamate

> <PUBCHEM_IUPAC_NAME>
benzyl N-[1-(5-propan-2-yl-1,2-oxazole-3-carbonyl)pyrrolidin-3-yl]carbamate

> <PUBCHEM_IUPAC_SYSTEMATIC_NAME>
(phenylmethyl) N-[1-[(5-propan-2-yl-1,2-oxazol-3-yl)carbonyl]pyrrolidin-3-yl]carbamate

> <PUBCHEM_IUPAC_TRADITIONAL_NAME>
N-[1-(5-isopropylisoxazole-3-carbonyl)pyrrolidin-3-yl]carbamic acid benzyl ester

> <PUBCHEM_IUPAC_INCHI>
InChI=1S/C19H23N3O4/c1-13(2)17-10-16(21-26-17)18(23)22-9-8-15(11-22)20-19(24)25-12-14-6-4-3-5-7-14/h3-7,10,13,15H,8-9,11-12H2,1-2H3,(H,20,24)

> <PUBCHEM_IUPAC_INCHIKEY>
PRUKLNWDRCXNLW-UHFFFAOYSA-N

> <PUBCHEM_XLOGP3_AA>
2.7

> <PUBCHEM_EXACT_MASS>
357.168856

> <PUBCHEM_MOLECULAR_FORMULA>
C19H23N3O4

> <PUBCHEM_MOLECULAR_WEIGHT>
357.4

> <PUBCHEM_OPENEYE_CAN_SMILES>
CC(C)C1=CC(=NO1)C(=O)N2CCC(C2)NC(=O)OCC3=CC=CC=C3

> <PUBCHEM_OPENEYE_ISO_SMILES>
CC(C)C1=CC(=NO1)C(=O)N2CCC(C2)NC(=O)OCC3=CC=CC=C3

> <PUBCHEM_CACTVS_TPSA>
84.7

> <PUBCHEM_MONOISOTOPIC_WEIGHT>
357.168856

> <PUBCHEM_TOTAL_CHARGE>
0

> <PUBCHEM_HEAVY_ATOM_COUNT>
26

> <PUBCHEM_ATOM_DEF_STEREO_COUNT>
0

> <PUBCHEM_ATOM_UDEF_STEREO_COUNT>
1

> <PUBCHEM_BOND_DEF_STEREO_COUNT>
0

> <PUBCHEM_BOND_UDEF_STEREO_COUNT>
0

> <PUBCHEM_ISOTOPIC_ATOM_COUNT>
0

> <PUBCHEM_COMPONENT_COUNT>
1

> <PUBCHEM_CACTVS_TAUTO_COUNT>
-1

> <PUBCHEM_COORDINATE_TYPE>
1
5
255

> <PUBCHEM_BONDANNOTATIONS>
13  15  8
15  16  8
21  22  8
21  23  8
22  24  8
23  25  8
24  26  8
25  26  8
3  16  8
3  7  8
8  6  3
7  13  8

$$$$
51092756
  -OEChem-02212016592D

 37 38  0     0  0  0  0  0  0999 V2000
    7.1753    3.1012    0.0000 O   0  0  0  0  0  0  0  0  0  0  0  0
    3.4945   -4.6012    0.0000 O   0  0  0  0  0  0  0  0  0  0  0  0
    6.3092   -3.3988    0.0000 O   0  0  0  0  0  0  0  0  0  0  0  0
    5.4432    3.1012    0.0000 O   0  0  0  0  0  0  0  0  0  0  0  0
    5.4432   -1.8988    0.0000 N   0  0  0  0  0  0  0  0  0  0  0  0
    4.4727   -4.3933    0.0000 N   0  0  0  0  0  0  0  0  0  0  0  0
    6.3092   -0.3988    0.0000 C   0  0  0  0  0  0  0  0  0  0  0  0
    6.3092   -1.3988    0.0000 C   0  0  0  0  0  0  0  0  0  0  0  0
    7.1753    0.1012    0.0000 C   0  0  0  0  0  0  0  0  0  0  0  0
    5.4432    0.1012    0.0000 C   0  0  0  0  0  0  0  0  0  0  0  0
    6.3092    1.6012    0.0000 C   0  0  0  0  0  0  0  0  0  0  0  0
    7.1753    1.1012    0.0000 C   0  0  0  0  0  0  0  0  0  0  0  0
    5.4432    1.1012    0.0000 C   0  0  0  0  0  0  0  0  0  0  0  0
    5.4432   -2.8988    0.0000 C   0  0  0  0  0  0  0  0  0  0  0  0
    4.5772   -3.3988    0.0000 C   0  0  0  0  0  0  0  0  0  0  0  0
    6.3092    2.6012    0.0000 C   0  0  0  0  0  0  0  0  0  0  0  0
    3.6636   -2.9920    0.0000 C   0  0  0  0  0  0  0  0  0  0  0  0
    2.9945   -3.7352    0.0000 C   0  0  0  0  0  0  0  0  0  0  0  0
    7.1753    4.1012    0.0000 C   0  0  0  0  0  0  0  0  0  0  0  0
    2.0000   -3.6307    0.0000 C   0  0  0  0  0  0  0  0  0  0  0  0
    8.0413    4.6012    0.0000 C   0  0  0  0  0  0  0  0  0  0  0  0
    6.5213   -1.9814    0.0000 H   0  0  0  0  0  0  0  0  0  0  0  0
    6.9198   -1.2911    0.0000 H   0  0  0  0  0  0  0  0  0  0  0  0
    7.7122   -0.2088    0.0000 H   0  0  0  0  0  0  0  0  0  0  0  0
    4.9063   -0.2088    0.0000 H   0  0  0  0  0  0  0  0  0  0  0  0
    4.9063   -1.5888    0.0000 H   0  0  0  0  0  0  0  0  0  0  0  0
    7.7122    1.4112    0.0000 H   0  0  0  0  0  0  0  0  0  0  0  0
    4.9063    1.4112    0.0000 H   0  0  0  0  0  0  0  0  0  0  0  0
    3.5348   -2.3856    0.0000 H   0  0  0  0  0  0  0  0  0  0  0  0
    6.9632    4.6838    0.0000 H   0  0  0  0  0  0  0  0  0  0  0  0
    6.5647    3.9936    0.0000 H   0  0  0  0  0  0  0  0  0  0  0  0
    2.0648   -3.0141    0.0000 H   0  0  0  0  0  0  0  0  0  0  0  0
    1.3834   -3.5659    0.0000 H   0  0  0  0  0  0  0  0  0  0  0  0
    1.9352   -4.2473    0.0000 H   0  0  0  0  0  0  0  0  0  0  0  0
    8.3513    4.0643    0.0000 H   0  0  0  0  0  0  0  0  0  0  0  0
    8.5782    4.9112    0.0000 H   0  0  0  0  0  0  0  0  0  0  0  0
    7.7313    5.1382    0.0000 H   0  0  0  0  0  0  0  0  0  0  0  0
  1 16  1  0  0  0  0
  1 19  1  0  0  0  0
  2  6  1  0  0  0  0
  2 18  1  0  0  0  0
  3 14  2  0  0  0  0
  4 16  2  0  0  0  0
  5  8  1  0  0  0  0
  5 14  1  0  0  0  0
  5 26  1  0  0  0  0
  6 15  2  0  0  0  0
  7  8  1  0  0  0  0
  7  9  2  0  0  0  0
  7 10  1  0  0  0  0
  8 22  1  0  0  0  0
  8 23  1  0  0  0  0
  9 12  1  0  0  0  0
  9 24  1  0  0  0  0
 10 13  2  0  0  0  0
 10 25  1  0  0  0  0
 11 12  2  0  0  0  0
 11 13  1  0  0  0  0
 11 16  1  0  0  0  0
 12 27  1  0  0  0  0
 13 28  1  0  0  0  0
 14 15  1  0  0  0  0
 15 17  1  0  0  0  0
 17 18  2  0  0  0  0
 17 29  1  0  0  0  0
 18 20  1  0  0  0  0
 19 21  1  0  0  0  0
 19 30  1  0  0  0  0
 19 31  1  0  0  0  0
 20 32  1  0  0  0  0
 20 33  1  0  0  0  0
 20 34  1  0  0  0  0
 21 35  1  0  0  0  0
 21 36  1  0  0  0  0
 21 37  1  0  0  0  0
M  END
> <PUBCHEM_COMPOUND_CID>
51092756

> <PUBCHEM_COMPOUND_CANONICALIZED>
1

> <PUBCHEM_CACTVS_COMPLEXITY>
367

> <PUBCHEM_CACTVS_HBOND_ACCEPTOR>
5

> <PUBCHEM_CACTVS_HBOND_DONOR>
1

> <PUBCHEM_CACTVS_ROTATABLE_BOND>
6

> <PUBCHEM_CACTVS_SUBSKEYS>
AAADceBzOAAAAAAAAAAAAAAAAAAAAWAAAAAwAAAAAAAAAAABwAAAHgAUAAAADAzhngYyjJLQBACpA6XyWgCCAAAmIgAomKG+bNoIZjqAtZuWMYhmxhmI6ce/yDCOQAAAAAAAAACAAAAAAAAAAAAAAAAAAA==

> <PUBCHEM_IUPAC_OPENEYE_NAME>
ethyl 4-[[(5-methylisoxazole-3-carbonyl)amino]methyl]benzoate

> <PUBCHEM_IUPAC_CAS_NAME>
4-[[[(5-methyl-3-isoxazolyl)-oxomethyl]amino]methyl]benzoic acid ethyl ester

> <PUBCHEM_IUPAC_NAME_MARKUP>
ethyl 4-[[(5-methyl-1,2-oxazole-3-carbonyl)amino]methyl]benzoate

> <PUBCHEM_IUPAC_NAME>
ethyl 4-[[(5-methyl-1,2-oxazole-3-carbonyl)amino]methyl]benzoate

> <PUBCHEM_IUPAC_SYSTEMATIC_NAME>
ethyl 4-[[(5-methyl-1,2-oxazol-3-yl)carbonylamino]methyl]benzoate

> <PUBCHEM_IUPAC_TRADITIONAL_NAME>
4-[[(5-methylisoxazole-3-carbonyl)amino]methyl]benzoic acid ethyl ester

> <PUBCHEM_IUPAC_INCHI>
InChI=1S/C15H16N2O4/c1-3-20-15(19)12-6-4-11(5-7-12)9-16-14(18)13-8-10(2)21-17-13/h4-8H,3,9H2,1-2H3,(H,16,18)

> <PUBCHEM_IUPAC_INCHIKEY>
NLVVCZOBMIZLPW-UHFFFAOYSA-N

> <PUBCHEM_XLOGP3_AA>
2.1

> <PUBCHEM_EXACT_MASS>
288.111007

> <PUBCHEM_MOLECULAR_FORMULA>
C15H16N2O4

> <PUBCHEM_MOLECULAR_WEIGHT>
288.3

> <PUBCHEM_OPENEYE_CAN_SMILES>
CCOC(=O)C1=CC=C(C=C1)CNC(=O)C2=NOC(=C2)C

> <PUBCHEM_OPENEYE_ISO_SMILES>
CCOC(=O)C1=CC=C(C=C1)CNC(=O)C2=NOC(=C2)C

> <PUBCHEM_CACTVS_TPSA>
81.4

> <PUBCHEM_MONOISOTOPIC_WEIGHT>
288.111007

> <PUBCHEM_TOTAL_CHARGE>
0

> <PUBCHEM_HEAVY_ATOM_COUNT>
21

> <PUBCHEM_ATOM_DEF_STEREO_COUNT>
0

> <PUBCHEM_ATOM_UDEF_STEREO_COUNT>
0

> <PUBCHEM_BOND_DEF_STEREO_COUNT>
0

> <PUBCHEM_BOND_UDEF_STEREO_COUNT>
0

> <PUBCHEM_ISOTOPIC_ATOM_COUNT>
0

> <PUBCHEM_COMPONENT_COUNT>
1

> <PUBCHEM_CACTVS_TAUTO_COUNT>
-1

> <PUBCHEM_COORDINATE_TYPE>
1
5
255

> <PUBCHEM_BONDANNOTATIONS>
10  13  8
11  12  8
11  13  8
15  17  8
17  18  8
2  18  8
2  6  8
6  15  8
7  10  8
7  9  8
9  12  8

$$$$
51130907
  -OEChem-02212016592D

 50 51  0     1  0  0  0  0  0999 V2000
    4.5768    5.3100    0.0000 O   0  0  0  0  0  0  0  0  0  0  0  0
    5.9781    4.2920    0.0000 O   0  0  0  0  0  0  0  0  0  0  0  0
    3.2202    1.9694    0.0000 O   0  0  0  0  0  0  0  0  0  0  0  0
    2.5436   -2.5313    0.0000 O   0  0  0  0  0  0  0  0  0  0  0  0
    5.4349   -0.8757    0.0000 O   0  0  0  0  0  0  0  0  0  0  0  0
    4.8025    2.6739    0.0000 N   0  0  0  0  0  0  0  0  0  0  0  0
    4.0337    0.1424    0.0000 N   0  0  0  0  0  0  0  0  0  0  0  0
    2.8526   -1.5802    0.0000 N   0  0  0  0  0  0  0  0  0  0  0  0
    2.9945    4.6056    0.0000 C   0  0  0  0  0  0  0  0  0  0  0  0
    3.4013    3.6920    0.0000 C   0  0  0  0  0  0  0  0  0  0  0  0
    4.3958    3.5875    0.0000 C   0  0  3  0  0  0  0  0  0  0  0  0
    2.0000    4.7101    0.0000 C   0  0  0  0  0  0  0  0  0  0  0  0
    3.5823    5.4146    0.0000 C   0  0  0  0  0  0  0  0  0  0  0  0
    4.9836    4.3965    0.0000 C   0  0  0  0  0  0  0  0  0  0  0  0
    4.2147    1.8649    0.0000 C   0  0  0  0  0  0  0  0  0  0  0  0
    4.6215    0.9514    0.0000 C   0  0  0  0  0  0  0  0  0  0  0  0
    5.1646    6.1190    0.0000 C   0  0  0  0  0  0  0  0  0  0  0  0
    4.4404   -0.7712    0.0000 C   0  0  0  0  0  0  0  0  0  0  0  0
    3.8526   -1.5802    0.0000 C   0  0  0  0  0  0  0  0  0  0  0  0
    3.3526   -3.1190    0.0000 C   0  0  0  0  0  0  0  0  0  0  0  0
    4.1616   -2.5313    0.0000 C   0  0  0  0  0  0  0  0  0  0  0  0
    3.3526   -4.1190    0.0000 C   0  0  0  0  0  0  0  0  0  0  0  0
    2.4866   -4.6190    0.0000 C   0  0  0  0  0  0  0  0  0  0  0  0
    4.2187   -4.6190    0.0000 C   0  0  0  0  0  0  0  0  0  0  0  0
    2.4866   -5.6190    0.0000 C   0  0  0  0  0  0  0  0  0  0  0  0
    4.2187   -5.6190    0.0000 C   0  0  0  0  0  0  0  0  0  0  0  0
    3.3526   -6.1190    0.0000 C   0  0  0  0  0  0  0  0  0  0  0  0
    2.7424    5.1720    0.0000 H   0  0  0  0  0  0  0  0  0  0  0  0
    2.7997    3.5420    0.0000 H   0  0  0  0  0  0  0  0  0  0  0  0
    3.4445    3.0735    0.0000 H   0  0  0  0  0  0  0  0  0  0  0  0
    5.0124    3.5227    0.0000 H   0  0  0  0  0  0  0  0  0  0  0  0
    2.0648    5.3267    0.0000 H   0  0  0  0  0  0  0  0  0  0  0  0
    1.3834    4.7749    0.0000 H   0  0  0  0  0  0  0  0  0  0  0  0
    1.9352    4.0935    0.0000 H   0  0  0  0  0  0  0  0  0  0  0  0
    4.0839    5.0501    0.0000 H   0  0  0  0  0  0  0  0  0  0  0  0
    3.9467    5.9162    0.0000 H   0  0  0  0  0  0  0  0  0  0  0  0
    3.0807    5.7790    0.0000 H   0  0  0  0  0  0  0  0  0  0  0  0
    5.4191    2.6091    0.0000 H   0  0  0  0  0  0  0  0  0  0  0  0
    5.0522    0.5054    0.0000 H   0  0  0  0  0  0  0  0  0  0  0  0
    5.1355    1.2981    0.0000 H   0  0  0  0  0  0  0  0  0  0  0  0
    3.4171    0.2072    0.0000 H   0  0  0  0  0  0  0  0  0  0  0  0
    5.6662    5.7546    0.0000 H   0  0  0  0  0  0  0  0  0  0  0  0
    5.5290    6.6206    0.0000 H   0  0  0  0  0  0  0  0  0  0  0  0
    4.6630    6.4835    0.0000 H   0  0  0  0  0  0  0  0  0  0  0  0
    4.7513   -2.7229    0.0000 H   0  0  0  0  0  0  0  0  0  0  0  0
    1.9497   -4.3090    0.0000 H   0  0  0  0  0  0  0  0  0  0  0  0
    4.7556   -4.3090    0.0000 H   0  0  0  0  0  0  0  0  0  0  0  0
    1.9497   -5.9290    0.0000 H   0  0  0  0  0  0  0  0  0  0  0  0
    4.7556   -5.9290    0.0000 H   0  0  0  0  0  0  0  0  0  0  0  0
    3.3526   -6.7390    0.0000 H   0  0  0  0  0  0  0  0  0  0  0  0
  1 14  1  0  0  0  0
  1 17  1  0  0  0  0
  2 14  2  0  0  0  0
  3 15  2  0  0  0  0
  4  8  1  0  0  0  0
  4 20  1  0  0  0  0
  5 18  2  0  0  0  0
  6 11  1  0  0  0  0
  6 15  1  0  0  0  0
  6 38  1  0  0  0  0
  7 16  1  0  0  0  0
  7 18  1  0  0  0  0
  7 41  1  0  0  0  0
  8 19  2  0  0  0  0
  9 10  1  0  0  0  0
  9 12  1  0  0  0  0
  9 13  1  0  0  0  0
  9 28  1  0  0  0  0
 10 11  1  0  0  0  0
 10 29  1  0  0  0  0
 10 30  1  0  0  0  0
 11 14  1  0  0  0  0
 11 31  1  0  0  0  0
 12 32  1  0  0  0  0
 12 33  1  0  0  0  0
 12 34  1  0  0  0  0
 13 35  1  0  0  0  0
 13 36  1  0  0  0  0
 13 37  1  0  0  0  0
 15 16  1  0  0  0  0
 16 39  1  0  0  0  0
 16 40  1  0  0  0  0
 17 42  1  0  0  0  0
 17 43  1  0  0  0  0
 17 44  1  0  0  0  0
 18 19  1  0  0  0  0
 19 21  1  0  0  0  0
 20 21  2  0  0  0  0
 20 22  1  0  0  0  0
 21 45  1  0  0  0  0
 22 23  2  0  0  0  0
 22 24  1  0  0  0  0
 23 25  1  0  0  0  0
 23 46  1  0  0  0  0
 24 26  2  0  0  0  0
 24 47  1  0  0  0  0
 25 27  2  0  0  0  0
 25 48  1  0  0  0  0
 26 27  1  0  0  0  0
 26 49  1  0  0  0  0
 27 50  1  0  0  0  0
M  END
> <PUBCHEM_COMPOUND_CID>
51130907

> <PUBCHEM_COMPOUND_CANONICALIZED>
1

> <PUBCHEM_CACTVS_COMPLEXITY>
520

> <PUBCHEM_CACTVS_HBOND_ACCEPTOR>
6

> <PUBCHEM_CACTVS_HBOND_DONOR>
2

> <PUBCHEM_CACTVS_ROTATABLE_BOND>
9

> <PUBCHEM_CACTVS_SUBSKEYS>
AAADceB7OAAAAAAAAAAAAAAAAAAAAWAAAAAwAAAAAAAAAAABwAAAHgAUAAAADSzBngYyjJLQBACpA6XyWgCCAAAmIgAomKG+bNoKZjqAlbOVMYhm1hmYyce/yKCOAAAAAAAAAAAAAAAAAAAAAAAAAAAAAA==

> <PUBCHEM_IUPAC_OPENEYE_NAME>
methyl 4-methyl-2-[[2-[(5-phenylisoxazole-3-carbonyl)amino]acetyl]amino]pentanoate

> <PUBCHEM_IUPAC_CAS_NAME>
4-methyl-2-[[1-oxo-2-[[oxo-(5-phenyl-3-isoxazolyl)methyl]amino]ethyl]amino]pentanoic acid methyl ester

> <PUBCHEM_IUPAC_NAME_MARKUP>
methyl 4-methyl-2-[[2-[(5-phenyl-1,2-oxazole-3-carbonyl)amino]acetyl]amino]pentanoate

> <PUBCHEM_IUPAC_NAME>
methyl 4-methyl-2-[[2-[(5-phenyl-1,2-oxazole-3-carbonyl)amino]acetyl]amino]pentanoate

> <PUBCHEM_IUPAC_SYSTEMATIC_NAME>
methyl 4-methyl-2-[2-[(5-phenyl-1,2-oxazol-3-yl)carbonylamino]ethanoylamino]pentanoate

> <PUBCHEM_IUPAC_TRADITIONAL_NAME>
4-methyl-2-[[2-[(5-phenylisoxazole-3-carbonyl)amino]acetyl]amino]valeric acid methyl ester

> <PUBCHEM_IUPAC_INCHI>
InChI=1S/C19H23N3O5/c1-12(2)9-15(19(25)26-3)21-17(23)11-20-18(24)14-10-16(27-22-14)13-7-5-4-6-8-13/h4-8,10,12,15H,9,11H2,1-3H3,(H,20,24)(H,21,23)

> <PUBCHEM_IUPAC_INCHIKEY>
WRURTRJEMGQBQX-UHFFFAOYSA-N

> <PUBCHEM_XLOGP3_AA>
2.6

> <PUBCHEM_EXACT_MASS>
373.163771

> <PUBCHEM_MOLECULAR_FORMULA>
C19H23N3O5

> <PUBCHEM_MOLECULAR_WEIGHT>
373.4

> <PUBCHEM_OPENEYE_CAN_SMILES>
CC(C)CC(C(=O)OC)NC(=O)CNC(=O)C1=NOC(=C1)C2=CC=CC=C2

> <PUBCHEM_OPENEYE_ISO_SMILES>
CC(C)CC(C(=O)OC)NC(=O)CNC(=O)C1=NOC(=C1)C2=CC=CC=C2

> <PUBCHEM_CACTVS_TPSA>
111

> <PUBCHEM_MONOISOTOPIC_WEIGHT>
373.163771

> <PUBCHEM_TOTAL_CHARGE>
0

> <PUBCHEM_HEAVY_ATOM_COUNT>
27

> <PUBCHEM_ATOM_DEF_STEREO_COUNT>
0

> <PUBCHEM_ATOM_UDEF_STEREO_COUNT>
1

> <PUBCHEM_BOND_DEF_STEREO_COUNT>
0

> <PUBCHEM_BOND_UDEF_STEREO_COUNT>
0

> <PUBCHEM_ISOTOPIC_ATOM_COUNT>
0

> <PUBCHEM_COMPONENT_COUNT>
1

> <PUBCHEM_CACTVS_TAUTO_COUNT>
-1

> <PUBCHEM_COORDINATE_TYPE>
1
5
255

> <PUBCHEM_BONDANNOTATIONS>
11  10  3
19  21  8
20  21  8
22  23  8
22  24  8
23  25  8
24  26  8
25  27  8
26  27  8
4  20  8
4  8  8
8  19  8

$$$$
51166706
  -OEChem-02212016592D

 34 35  0     0  0  0  0  0  0999 V2000
    3.7320   -1.4239    0.0000 O   0  0  0  0  0  0  0  0  0  0  0  0
    4.9641    4.1149    0.0000 O   0  0  0  0  0  0  0  0  0  0  0  0
    6.3301    1.0761    0.0000 O   0  0  0  0  0  0  0  0  0  0  0  0
    2.8660    0.0761    0.0000 O   0  0  0  0  0  0  0  0  0  0  0  0
    4.5981    1.0761    0.0000 N   0  0  0  0  0  0  0  0  0  0  0  0
    4.6551    3.1639    0.0000 N   0  0  0  0  0  0  0  0  0  0  0  0
    2.8660   -2.9239    0.0000 C   0  0  0  0  0  0  0  0  0  0  0  0
    2.8660   -1.9239    0.0000 C   0  0  0  0  0  0  0  0  0  0  0  0
    4.5981    0.0761    0.0000 C   0  0  0  0  0  0  0  0  0  0  0  0
    5.4641    2.5761    0.0000 C   0  0  0  0  0  0  0  0  0  0  0  0
    2.0000   -3.4239    0.0000 C   0  0  0  0  0  0  0  0  0  0  0  0
    3.7320   -3.4239    0.0000 C   0  0  0  0  0  0  0  0  0  0  0  0
    5.4641    1.5761    0.0000 C   0  0  0  0  0  0  0  0  0  0  0  0
    3.7320   -0.4239    0.0000 C   0  0  0  0  0  0  0  0  0  0  0  0
    6.2731    3.1639    0.0000 C   0  0  0  0  0  0  0  0  0  0  0  0
    5.9641    4.1149    0.0000 C   0  0  0  0  0  0  0  0  0  0  0  0
    2.0000   -4.4239    0.0000 C   0  0  0  0  0  0  0  0  0  0  0  0
    3.7320   -4.4239    0.0000 C   0  0  0  0  0  0  0  0  0  0  0  0
    2.8660   -4.9239    0.0000 C   0  0  0  0  0  0  0  0  0  0  0  0
    6.5519    4.9239    0.0000 C   0  0  0  0  0  0  0  0  0  0  0  0
    2.6540   -1.3413    0.0000 H   0  0  0  0  0  0  0  0  0  0  0  0
    2.2554   -2.0316    0.0000 H   0  0  0  0  0  0  0  0  0  0  0  0
    4.8101   -0.5065    0.0000 H   0  0  0  0  0  0  0  0  0  0  0  0
    5.2087    0.1837    0.0000 H   0  0  0  0  0  0  0  0  0  0  0  0
    4.0611    1.3861    0.0000 H   0  0  0  0  0  0  0  0  0  0  0  0
    1.4631   -3.1139    0.0000 H   0  0  0  0  0  0  0  0  0  0  0  0
    4.2690   -3.1139    0.0000 H   0  0  0  0  0  0  0  0  0  0  0  0
    6.8628    2.9723    0.0000 H   0  0  0  0  0  0  0  0  0  0  0  0
    1.4631   -4.7339    0.0000 H   0  0  0  0  0  0  0  0  0  0  0  0
    4.2690   -4.7339    0.0000 H   0  0  0  0  0  0  0  0  0  0  0  0
    2.8660   -5.5439    0.0000 H   0  0  0  0  0  0  0  0  0  0  0  0
    7.0535    4.5595    0.0000 H   0  0  0  0  0  0  0  0  0  0  0  0
    6.9163    5.4255    0.0000 H   0  0  0  0  0  0  0  0  0  0  0  0
    6.0503    5.2884    0.0000 H   0  0  0  0  0  0  0  0  0  0  0  0
  1  8  1  0  0  0  0
  1 14  1  0  0  0  0
  2  6  1  0  0  0  0
  2 16  1  0  0  0  0
  3 13  2  0  0  0  0
  4 14  2  0  0  0  0
  5  9  1  0  0  0  0
  5 13  1  0  0  0  0
  5 25  1  0  0  0  0
  6 10  2  0  0  0  0
  7  8  1  0  0  0  0
  7 11  2  0  0  0  0
  7 12  1  0  0  0  0
  8 21  1  0  0  0  0
  8 22  1  0  0  0  0
  9 14  1  0  0  0  0
  9 23  1  0  0  0  0
  9 24  1  0  0  0  0
 10 13  1  0  0  0  0
 10 15  1  0  0  0  0
 11 17  1  0  0  0  0
 11 26  1  0  0  0  0
 12 18  2  0  0  0  0
 12 27  1  0  0  0  0
 15 16  2  0  0  0  0
 15 28  1  0  0  0  0
 16 20  1  0  0  0  0
 17 19  2  0  0  0  0
 17 29  1  0  0  0  0
 18 19  1  0  0  0  0
 18 30  1  0  0  0  0
 19 31  1  0  0  0  0
 20 32  1  0  0  0  0
 20 33  1  0  0  0  0
 20 34  1  0  0  0  0
M  END
> <PUBCHEM_COMPOUND_CID>
51166706

> <PUBCHEM_COMPOUND_CANONICALIZED>
1

> <PUBCHEM_CACTVS_COMPLEXITY>
342

> <PUBCHEM_CACTVS_HBOND_ACCEPTOR>
5

> <PUBCHEM_CACTVS_HBOND_DONOR>
1

> <PUBCHEM_CACTVS_ROTATABLE_BOND>
6

> <PUBCHEM_CACTVS_SUBSKEYS>
AAADccBzOAAAAAAAAAAAAAAAAAAAAWAAAAAwAAAAAAAAAAABwAAAHgAUAAAADAzhngYyjJLQBACpA6XyWgCCAAAmIgAomKG+bNoKZjqAtbuXMYhmxhmY6ce/wCAOAAAAAAAAAAAAAAAAAAAAAAAAAAAAAA==

> <PUBCHEM_IUPAC_OPENEYE_NAME>
benzyl 2-[(5-methylisoxazole-3-carbonyl)amino]acetate

> <PUBCHEM_IUPAC_CAS_NAME>
2-[[(5-methyl-3-isoxazolyl)-oxomethyl]amino]acetic acid (phenylmethyl) ester

> <PUBCHEM_IUPAC_NAME_MARKUP>
benzyl 2-[(5-methyl-1,2-oxazole-3-carbonyl)amino]acetate

> <PUBCHEM_IUPAC_NAME>
benzyl 2-[(5-methyl-1,2-oxazole-3-carbonyl)amino]acetate

> <PUBCHEM_IUPAC_SYSTEMATIC_NAME>
(phenylmethyl) 2-[(5-methyl-1,2-oxazol-3-yl)carbonylamino]ethanoate

> <PUBCHEM_IUPAC_TRADITIONAL_NAME>
2-[(5-methylisoxazole-3-carbonyl)amino]acetic acid benzyl ester

> <PUBCHEM_IUPAC_INCHI>
InChI=1S/C14H14N2O4/c1-10-7-12(16-20-10)14(18)15-8-13(17)19-9-11-5-3-2-4-6-11/h2-7H,8-9H2,1H3,(H,15,18)

> <PUBCHEM_IUPAC_INCHIKEY>
TXODVZSOPXMBHJ-UHFFFAOYSA-N

> <PUBCHEM_XLOGP3>
1.6

> <PUBCHEM_EXACT_MASS>
274.095357

> <PUBCHEM_MOLECULAR_FORMULA>
C14H14N2O4

> <PUBCHEM_MOLECULAR_WEIGHT>
274.27

> <PUBCHEM_OPENEYE_CAN_SMILES>
CC1=CC(=NO1)C(=O)NCC(=O)OCC2=CC=CC=C2

> <PUBCHEM_OPENEYE_ISO_SMILES>
CC1=CC(=NO1)C(=O)NCC(=O)OCC2=CC=CC=C2

> <PUBCHEM_CACTVS_TPSA>
81.4

> <PUBCHEM_MONOISOTOPIC_WEIGHT>
274.095357

> <PUBCHEM_TOTAL_CHARGE>
0

> <PUBCHEM_HEAVY_ATOM_COUNT>
20

> <PUBCHEM_ATOM_DEF_STEREO_COUNT>
0

> <PUBCHEM_ATOM_UDEF_STEREO_COUNT>
0

> <PUBCHEM_BOND_DEF_STEREO_COUNT>
0

> <PUBCHEM_BOND_UDEF_STEREO_COUNT>
0

> <PUBCHEM_ISOTOPIC_ATOM_COUNT>
0

> <PUBCHEM_COMPONENT_COUNT>
1

> <PUBCHEM_CACTVS_TAUTO_COUNT>
-1

> <PUBCHEM_COORDINATE_TYPE>
1
5
255

> <PUBCHEM_BONDANNOTATIONS>
10  15  8
11  17  8
12  18  8
15  16  8
17  19  8
18  19  8
2  16  8
2  6  8
6  10  8
7  11  8
7  12  8

$$$$
51257011
  -OEChem-02212016592D

 43 44  0     1  0  0  0  0  0999 V2000
    2.8660    0.3988    0.0000 O   0  0  0  0  0  0  0  0  0  0  0  0
    3.7320   -1.1012    0.0000 O   0  0  0  0  0  0  0  0  0  0  0  0
    5.4641    1.8988    0.0000 O   0  0  0  0  0  0  0  0  0  0  0  0
    8.2788    3.1012    0.0000 O   0  0  0  0  0  0  0  0  0  0  0  0
    6.3301    0.3988    0.0000 N   0  0  0  0  0  0  0  0  0  0  0  0
    7.3007    2.8933    0.0000 N   0  0  0  0  0  0  0  0  0  0  0  0
    5.4641   -0.1012    0.0000 C   0  0  3  0  0  0  0  0  0  0  0  0
    4.5981    0.3988    0.0000 C   0  0  0  0  0  0  0  0  0  0  0  0
    5.4641   -1.1012    0.0000 C   0  0  0  0  0  0  0  0  0  0  0  0
    3.7320   -0.1012    0.0000 C   0  0  0  0  0  0  0  0  0  0  0  0
    4.5981   -1.6012    0.0000 C   0  0  0  0  0  0  0  0  0  0  0  0
    6.3301   -1.6012    0.0000 C   0  0  0  0  0  0  0  0  0  0  0  0
    2.8660    1.3988    0.0000 C   0  0  0  0  0  0  0  0  0  0  0  0
    6.3301    1.3988    0.0000 C   0  0  0  0  0  0  0  0  0  0  0  0
    4.5981   -2.6012    0.0000 C   0  0  0  0  0  0  0  0  0  0  0  0
    6.3301   -2.6012    0.0000 C   0  0  0  0  0  0  0  0  0  0  0  0
    7.1962    1.8988    0.0000 C   0  0  0  0  0  0  0  0  0  0  0  0
    5.4641   -3.1012    0.0000 C   0  0  0  0  0  0  0  0  0  0  0  0
    2.0000    1.8988    0.0000 C   0  0  0  0  0  0  0  0  0  0  0  0
    3.7320    1.8988    0.0000 C   0  0  0  0  0  0  0  0  0  0  0  0
    8.1097    1.4921    0.0000 C   0  0  0  0  0  0  0  0  0  0  0  0
    8.7788    2.2352    0.0000 C   0  0  0  0  0  0  0  0  0  0  0  0
    9.7734    2.1307    0.0000 C   0  0  0  0  0  0  0  0  0  0  0  0
    5.4641    0.5188    0.0000 H   0  0  0  0  0  0  0  0  0  0  0  0
    4.9966    0.8737    0.0000 H   0  0  0  0  0  0  0  0  0  0  0  0
    4.1996    0.8737    0.0000 H   0  0  0  0  0  0  0  0  0  0  0  0
    6.8671    0.0888    0.0000 H   0  0  0  0  0  0  0  0  0  0  0  0
    4.0611   -1.2912    0.0000 H   0  0  0  0  0  0  0  0  0  0  0  0
    6.8671   -1.2912    0.0000 H   0  0  0  0  0  0  0  0  0  0  0  0
    3.4030    1.0888    0.0000 H   0  0  0  0  0  0  0  0  0  0  0  0
    4.0611   -2.9112    0.0000 H   0  0  0  0  0  0  0  0  0  0  0  0
    6.8671   -2.9112    0.0000 H   0  0  0  0  0  0  0  0  0  0  0  0
    5.4641   -3.7212    0.0000 H   0  0  0  0  0  0  0  0  0  0  0  0
    2.3100    2.4357    0.0000 H   0  0  0  0  0  0  0  0  0  0  0  0
    1.4631    2.2088    0.0000 H   0  0  0  0  0  0  0  0  0  0  0  0
    1.6900    1.3618    0.0000 H   0  0  0  0  0  0  0  0  0  0  0  0
    4.0420    1.3618    0.0000 H   0  0  0  0  0  0  0  0  0  0  0  0
    4.2690    2.2088    0.0000 H   0  0  0  0  0  0  0  0  0  0  0  0
    3.4220    2.4357    0.0000 H   0  0  0  0  0  0  0  0  0  0  0  0
    8.2386    0.8856    0.0000 H   0  0  0  0  0  0  0  0  0  0  0  0
    9.7085    1.5141    0.0000 H   0  0  0  0  0  0  0  0  0  0  0  0
   10.3900    2.0659    0.0000 H   0  0  0  0  0  0  0  0  0  0  0  0
    9.8382    2.7473    0.0000 H   0  0  0  0  0  0  0  0  0  0  0  0
  1 10  1  0  0  0  0
  1 13  1  0  0  0  0
  2 10  2  0  0  0  0
  3 14  2  0  0  0  0
  4  6  1  0  0  0  0
  4 22  1  0  0  0  0
  5  7  1  0  0  0  0
  5 14  1  0  0  0  0
  5 27  1  0  0  0  0
  6 17  2  0  0  0  0
  7  8  1  0  0  0  0
  7  9  1  0  0  0  0
  7 24  1  0  0  0  0
  8 10  1  0  0  0  0
  8 25  1  0  0  0  0
  8 26  1  0  0  0  0
  9 11  2  0  0  0  0
  9 12  1  0  0  0  0
 11 15  1  0  0  0  0
 11 28  1  0  0  0  0
 12 16  2  0  0  0  0
 12 29  1  0  0  0  0
 13 19  1  0  0  0  0
 13 20  1  0  0  0  0
 13 30  1  0  0  0  0
 14 17  1  0  0  0  0
 15 18  2  0  0  0  0
 15 31  1  0  0  0  0
 16 18  1  0  0  0  0
 16 32  1  0  0  0  0
 17 21  1  0  0  0  0
 18 33  1  0  0  0  0
 19 34  1  0  0  0  0
 19 35  1  0  0  0  0
 19 36  1  0  0  0  0
 20 37  1  0  0  0  0
 20 38  1  0  0  0  0
 20 39  1  0  0  0  0
 21 22  2  0  0  0  0
 21 40  1  0  0  0  0
 22 23  1  0  0  0  0
 23 41  1  0  0  0  0
 23 42  1  0  0  0  0
 23 43  1  0  0  0  0
M  END
> <PUBCHEM_COMPOUND_CID>
51257011

> <PUBCHEM_COMPOUND_CANONICALIZED>
1

> <PUBCHEM_CACTVS_COMPLEXITY>
407

> <PUBCHEM_CACTVS_HBOND_ACCEPTOR>
5

> <PUBCHEM_CACTVS_HBOND_DONOR>
1

> <PUBCHEM_CACTVS_ROTATABLE_BOND>
7

> <PUBCHEM_CACTVS_SUBSKEYS>
AAADceB7OAAAAAAAAAAAAAAAAAAAAWAAAAAwAAAAAAAAAAABwAAAHgAUAAAADDzhngYyjJLQBACpA6XyWgCCAAAmIgAomKG+bNoIZjqAlZOWMYhmlhiIyce/yKCOAAAAAAAAAAAAAAAAAAAAAAAAAAAAAA==

> <PUBCHEM_IUPAC_OPENEYE_NAME>
isopropyl 3-[(5-methylisoxazole-3-carbonyl)amino]-3-phenyl-propanoate

> <PUBCHEM_IUPAC_CAS_NAME>
3-[[(5-methyl-3-isoxazolyl)-oxomethyl]amino]-3-phenylpropanoic acid propan-2-yl ester

> <PUBCHEM_IUPAC_NAME_MARKUP>
propan-2-yl 3-[(5-methyl-1,2-oxazole-3-carbonyl)amino]-3-phenylpropanoate

> <PUBCHEM_IUPAC_NAME>
propan-2-yl 3-[(5-methyl-1,2-oxazole-3-carbonyl)amino]-3-phenylpropanoate

> <PUBCHEM_IUPAC_SYSTEMATIC_NAME>
propan-2-yl 3-[(5-methyl-1,2-oxazol-3-yl)carbonylamino]-3-phenyl-propanoate

> <PUBCHEM_IUPAC_TRADITIONAL_NAME>
3-[(5-methylisoxazole-3-carbonyl)amino]-3-phenyl-propionic acid isopropyl ester

> <PUBCHEM_IUPAC_INCHI>
InChI=1S/C17H20N2O4/c1-11(2)22-16(20)10-14(13-7-5-4-6-8-13)18-17(21)15-9-12(3)23-19-15/h4-9,11,14H,10H2,1-3H3,(H,18,21)

> <PUBCHEM_IUPAC_INCHIKEY>
WGIMPRKGMIQDRO-UHFFFAOYSA-N

> <PUBCHEM_XLOGP3_AA>
2.5

> <PUBCHEM_EXACT_MASS>
316.142307

> <PUBCHEM_MOLECULAR_FORMULA>
C17H20N2O4

> <PUBCHEM_MOLECULAR_WEIGHT>
316.35

> <PUBCHEM_OPENEYE_CAN_SMILES>
CC1=CC(=NO1)C(=O)NC(CC(=O)OC(C)C)C2=CC=CC=C2

> <PUBCHEM_OPENEYE_ISO_SMILES>
CC1=CC(=NO1)C(=O)NC(CC(=O)OC(C)C)C2=CC=CC=C2

> <PUBCHEM_CACTVS_TPSA>
81.4

> <PUBCHEM_MONOISOTOPIC_WEIGHT>
316.142307

> <PUBCHEM_TOTAL_CHARGE>
0

> <PUBCHEM_HEAVY_ATOM_COUNT>
23

> <PUBCHEM_ATOM_DEF_STEREO_COUNT>
0

> <PUBCHEM_ATOM_UDEF_STEREO_COUNT>
1

> <PUBCHEM_BOND_DEF_STEREO_COUNT>
0

> <PUBCHEM_BOND_UDEF_STEREO_COUNT>
0

> <PUBCHEM_ISOTOPIC_ATOM_COUNT>
0

> <PUBCHEM_COMPONENT_COUNT>
1

> <PUBCHEM_CACTVS_TAUTO_COUNT>
-1

> <PUBCHEM_COORDINATE_TYPE>
1
5
255

> <PUBCHEM_BONDANNOTATIONS>
11  15  8
12  16  8
15  18  8
16  18  8
17  21  8
21  22  8
4  22  8
4  6  8
6  17  8
7  8  3
9  11  8
9  12  8

$$$$
51266980
  -OEChem-02212016592D

 40 41  0     0  0  0  0  0  0999 V2000
    3.9092    3.9920    0.0000 O   0  0  0  0  0  0  0  0  0  0  0  0
    2.0570   -2.1268    0.0000 O   0  0  0  0  0  0  0  0  0  0  0  0
    5.3104    2.9739    0.0000 O   0  0  0  0  0  0  0  0  0  0  0  0
    4.9483   -0.4712    0.0000 O   0  0  0  0  0  0  0  0  0  0  0  0
    3.5471    0.5469    0.0000 N   0  0  0  0  0  0  0  0  0  0  0  0
    2.3660   -1.1757    0.0000 N   0  0  0  0  0  0  0  0  0  0  0  0
    3.7281    2.2694    0.0000 C   0  0  0  0  0  0  0  0  0  0  0  0
    4.1349    1.3559    0.0000 C   0  0  0  0  0  0  0  0  0  0  0  0
    4.4970    4.8010    0.0000 C   0  0  0  0  0  0  0  0  0  0  0  0
    4.3159    3.0784    0.0000 C   0  0  0  0  0  0  0  0  0  0  0  0
    4.0902    5.7146    0.0000 C   0  0  0  0  0  0  0  0  0  0  0  0
    5.4915    4.6965    0.0000 C   0  0  0  0  0  0  0  0  0  0  0  0
    3.3660   -1.1757    0.0000 C   0  0  0  0  0  0  0  0  0  0  0  0
    3.9538   -0.3667    0.0000 C   0  0  0  0  0  0  0  0  0  0  0  0
    2.8660   -2.7146    0.0000 C   0  0  0  0  0  0  0  0  0  0  0  0
    2.8660   -3.7146    0.0000 C   0  0  0  0  0  0  0  0  0  0  0  0
    3.6750   -2.1268    0.0000 C   0  0  0  0  0  0  0  0  0  0  0  0
    2.0000   -4.2146    0.0000 C   0  0  0  0  0  0  0  0  0  0  0  0
    3.7320   -4.2146    0.0000 C   0  0  0  0  0  0  0  0  0  0  0  0
    2.0000   -5.2146    0.0000 C   0  0  0  0  0  0  0  0  0  0  0  0
    3.7320   -5.2146    0.0000 C   0  0  0  0  0  0  0  0  0  0  0  0
    2.8660   -5.7146    0.0000 C   0  0  0  0  0  0  0  0  0  0  0  0
    3.2974    2.7154    0.0000 H   0  0  0  0  0  0  0  0  0  0  0  0
    3.2141    1.9227    0.0000 H   0  0  0  0  0  0  0  0  0  0  0  0
    4.5656    0.9099    0.0000 H   0  0  0  0  0  0  0  0  0  0  0  0
    4.6489    1.7026    0.0000 H   0  0  0  0  0  0  0  0  0  0  0  0
    3.8804    4.8658    0.0000 H   0  0  0  0  0  0  0  0  0  0  0  0
    2.9305    0.6117    0.0000 H   0  0  0  0  0  0  0  0  0  0  0  0
    4.6566    5.9667    0.0000 H   0  0  0  0  0  0  0  0  0  0  0  0
    3.8380    6.2809    0.0000 H   0  0  0  0  0  0  0  0  0  0  0  0
    3.5238    5.4624    0.0000 H   0  0  0  0  0  0  0  0  0  0  0  0
    5.4267    4.0799    0.0000 H   0  0  0  0  0  0  0  0  0  0  0  0
    6.1081    4.6317    0.0000 H   0  0  0  0  0  0  0  0  0  0  0  0
    5.5563    5.3131    0.0000 H   0  0  0  0  0  0  0  0  0  0  0  0
    4.2647   -2.3184    0.0000 H   0  0  0  0  0  0  0  0  0  0  0  0
    1.4631   -3.9046    0.0000 H   0  0  0  0  0  0  0  0  0  0  0  0
    4.2690   -3.9046    0.0000 H   0  0  0  0  0  0  0  0  0  0  0  0
    1.4631   -5.5245    0.0000 H   0  0  0  0  0  0  0  0  0  0  0  0
    4.2690   -5.5245    0.0000 H   0  0  0  0  0  0  0  0  0  0  0  0
    2.8660   -6.3346    0.0000 H   0  0  0  0  0  0  0  0  0  0  0  0
  1  9  1  0  0  0  0
  1 10  1  0  0  0  0
  2  6  1  0  0  0  0
  2 15  1  0  0  0  0
  3 10  2  0  0  0  0
  4 14  2  0  0  0  0
  5  8  1  0  0  0  0
  5 14  1  0  0  0  0
  5 28  1  0  0  0  0
  6 13  2  0  0  0  0
  7  8  1  0  0  0  0
  7 10  1  0  0  0  0
  7 23  1  0  0  0  0
  7 24  1  0  0  0  0
  8 25  1  0  0  0  0
  8 26  1  0  0  0  0
  9 11  1  0  0  0  0
  9 12  1  0  0  0  0
  9 27  1  0  0  0  0
 11 29  1  0  0  0  0
 11 30  1  0  0  0  0
 11 31  1  0  0  0  0
 12 32  1  0  0  0  0
 12 33  1  0  0  0  0
 12 34  1  0  0  0  0
 13 14  1  0  0  0  0
 13 17  1  0  0  0  0
 15 16  1  0  0  0  0
 15 17  2  0  0  0  0
 16 18  2  0  0  0  0
 16 19  1  0  0  0  0
 17 35  1  0  0  0  0
 18 20  1  0  0  0  0
 18 36  1  0  0  0  0
 19 21  2  0  0  0  0
 19 37  1  0  0  0  0
 20 22  2  0  0  0  0
 20 38  1  0  0  0  0
 21 22  1  0  0  0  0
 21 39  1  0  0  0  0
 22 40  1  0  0  0  0
M  END
> <PUBCHEM_COMPOUND_CID>
51266980

> <PUBCHEM_COMPOUND_CANONICALIZED>
1

> <PUBCHEM_CACTVS_COMPLEXITY>
380

> <PUBCHEM_CACTVS_HBOND_ACCEPTOR>
5

> <PUBCHEM_CACTVS_HBOND_DONOR>
1

> <PUBCHEM_CACTVS_ROTATABLE_BOND>
7

> <PUBCHEM_CACTVS_SUBSKEYS>
AAADceB7OAAAAAAAAAAAAAAAAAAAAWAAAAAwAAAAAAAAAAABwAAAHgAUAAAADBzhngYyjJLQBACpA6XyWgCCAAAmIgAomKG+bNoIZjqAlZOWMYhm1hmIyce/yKCOAAAAAAAAAAAAAAAAAAAAAAAAAAAAAA==

> <PUBCHEM_IUPAC_OPENEYE_NAME>
isopropyl 3-[(5-phenylisoxazole-3-carbonyl)amino]propanoate

> <PUBCHEM_IUPAC_CAS_NAME>
3-[[oxo-(5-phenyl-3-isoxazolyl)methyl]amino]propanoic acid propan-2-yl ester

> <PUBCHEM_IUPAC_NAME_MARKUP>
propan-2-yl 3-[(5-phenyl-1,2-oxazole-3-carbonyl)amino]propanoate

> <PUBCHEM_IUPAC_NAME>
propan-2-yl 3-[(5-phenyl-1,2-oxazole-3-carbonyl)amino]propanoate

> <PUBCHEM_IUPAC_SYSTEMATIC_NAME>
propan-2-yl 3-[(5-phenyl-1,2-oxazol-3-yl)carbonylamino]propanoate

> <PUBCHEM_IUPAC_TRADITIONAL_NAME>
3-[(5-phenylisoxazole-3-carbonyl)amino]propionic acid isopropyl ester

> <PUBCHEM_IUPAC_INCHI>
InChI=1S/C16H18N2O4/c1-11(2)21-15(19)8-9-17-16(20)13-10-14(22-18-13)12-6-4-3-5-7-12/h3-7,10-11H,8-9H2,1-2H3,(H,17,20)

> <PUBCHEM_IUPAC_INCHIKEY>
ONYXBHBYRFWKGG-UHFFFAOYSA-N

> <PUBCHEM_XLOGP3_AA>
2.3

> <PUBCHEM_EXACT_MASS>
302.126657

> <PUBCHEM_MOLECULAR_FORMULA>
C16H18N2O4

> <PUBCHEM_MOLECULAR_WEIGHT>
302.32

> <PUBCHEM_OPENEYE_CAN_SMILES>
CC(C)OC(=O)CCNC(=O)C1=NOC(=C1)C2=CC=CC=C2

> <PUBCHEM_OPENEYE_ISO_SMILES>
CC(C)OC(=O)CCNC(=O)C1=NOC(=C1)C2=CC=CC=C2

> <PUBCHEM_CACTVS_TPSA>
81.4

> <PUBCHEM_MONOISOTOPIC_WEIGHT>
302.126657

> <PUBCHEM_TOTAL_CHARGE>
0

> <PUBCHEM_HEAVY_ATOM_COUNT>
22

> <PUBCHEM_ATOM_DEF_STEREO_COUNT>
0

> <PUBCHEM_ATOM_UDEF_STEREO_COUNT>
0

> <PUBCHEM_BOND_DEF_STEREO_COUNT>
0

> <PUBCHEM_BOND_UDEF_STEREO_COUNT>
0

> <PUBCHEM_ISOTOPIC_ATOM_COUNT>
0

> <PUBCHEM_COMPONENT_COUNT>
1

> <PUBCHEM_CACTVS_TAUTO_COUNT>
-1

> <PUBCHEM_COORDINATE_TYPE>
1
5
255

> <PUBCHEM_BONDANNOTATIONS>
13  17  8
15  17  8
16  18  8
16  19  8
18  20  8
19  21  8
2  15  8
2  6  8
20  22  8
21  22  8
6  13  8

$$$$
51270462
  -OEChem-02212016592D

 43 44  0     1  0  0  0  0  0999 V2000
    4.3958    3.9397    0.0000 O   0  0  0  0  0  0  0  0  0  0  0  0
    5.9781    3.2352    0.0000 O   0  0  0  0  0  0  0  0  0  0  0  0
    6.6547   -1.2655    0.0000 O   0  0  0  0  0  0  0  0  0  0  0  0
    3.7634    0.3901    0.0000 O   0  0  0  0  0  0  0  0  0  0  0  0
    5.1646    1.4081    0.0000 N   0  0  0  0  0  0  0  0  0  0  0  0
    6.3457   -0.3144    0.0000 N   0  0  0  0  0  0  0  0  0  0  0  0
    2.9945    2.9216    0.0000 C   0  0  0  0  0  0  0  0  0  0  0  0
    3.5823    2.1126    0.0000 C   0  0  0  0  0  0  0  0  0  0  0  0
    4.5768    2.2172    0.0000 C   0  0  3  0  0  0  0  0  0  0  0  0
    2.0000    2.8171    0.0000 C   0  0  0  0  0  0  0  0  0  0  0  0
    3.4013    3.8352    0.0000 C   0  0  0  0  0  0  0  0  0  0  0  0
    4.9836    3.1307    0.0000 C   0  0  0  0  0  0  0  0  0  0  0  0
    4.7579    0.4946    0.0000 C   0  0  0  0  0  0  0  0  0  0  0  0
    5.3457   -0.3144    0.0000 C   0  0  0  0  0  0  0  0  0  0  0  0
    5.0366   -1.2655    0.0000 C   0  0  0  0  0  0  0  0  0  0  0  0
    5.8457   -1.8533    0.0000 C   0  0  0  0  0  0  0  0  0  0  0  0
    5.8457   -2.8533    0.0000 C   0  0  0  0  0  0  0  0  0  0  0  0
    4.8025    4.8533    0.0000 C   0  0  0  0  0  0  0  0  0  0  0  0
    4.9796   -3.3533    0.0000 C   0  0  0  0  0  0  0  0  0  0  0  0
    6.7117   -3.3533    0.0000 C   0  0  0  0  0  0  0  0  0  0  0  0
    4.9796   -4.3533    0.0000 C   0  0  0  0  0  0  0  0  0  0  0  0
    6.7117   -4.3533    0.0000 C   0  0  0  0  0  0  0  0  0  0  0  0
    5.8457   -4.8533    0.0000 C   0  0  0  0  0  0  0  0  0  0  0  0
    2.7424    2.3552    0.0000 H   0  0  0  0  0  0  0  0  0  0  0  0
    3.0250    1.8408    0.0000 H   0  0  0  0  0  0  0  0  0  0  0  0
    3.7532    1.5166    0.0000 H   0  0  0  0  0  0  0  0  0  0  0  0
    4.3246    1.6508    0.0000 H   0  0  0  0  0  0  0  0  0  0  0  0
    1.9352    3.4337    0.0000 H   0  0  0  0  0  0  0  0  0  0  0  0
    1.3834    2.7523    0.0000 H   0  0  0  0  0  0  0  0  0  0  0  0
    2.0648    2.2005    0.0000 H   0  0  0  0  0  0  0  0  0  0  0  0
    3.9677    3.5830    0.0000 H   0  0  0  0  0  0  0  0  0  0  0  0
    3.6534    4.4016    0.0000 H   0  0  0  0  0  0  0  0  0  0  0  0
    2.8349    4.0874    0.0000 H   0  0  0  0  0  0  0  0  0  0  0  0
    5.7812    1.4730    0.0000 H   0  0  0  0  0  0  0  0  0  0  0  0
    4.4470   -1.4571    0.0000 H   0  0  0  0  0  0  0  0  0  0  0  0
    5.3689    4.6011    0.0000 H   0  0  0  0  0  0  0  0  0  0  0  0
    5.0547    5.4197    0.0000 H   0  0  0  0  0  0  0  0  0  0  0  0
    4.2361    5.1054    0.0000 H   0  0  0  0  0  0  0  0  0  0  0  0
    4.4427   -3.0433    0.0000 H   0  0  0  0  0  0  0  0  0  0  0  0
    7.2486   -3.0433    0.0000 H   0  0  0  0  0  0  0  0  0  0  0  0
    4.4427   -4.6633    0.0000 H   0  0  0  0  0  0  0  0  0  0  0  0
    7.2486   -4.6633    0.0000 H   0  0  0  0  0  0  0  0  0  0  0  0
    5.8457   -5.4733    0.0000 H   0  0  0  0  0  0  0  0  0  0  0  0
  1 12  1  0  0  0  0
  1 18  1  0  0  0  0
  2 12  2  0  0  0  0
  3  6  1  0  0  0  0
  3 16  1  0  0  0  0
  4 13  2  0  0  0  0
  5  9  1  0  0  0  0
  5 13  1  0  0  0  0
  5 34  1  0  0  0  0
  6 14  2  0  0  0  0
  7  8  1  0  0  0  0
  7 10  1  0  0  0  0
  7 11  1  0  0  0  0
  7 24  1  0  0  0  0
  8  9  1  0  0  0  0
  8 25  1  0  0  0  0
  8 26  1  0  0  0  0
  9 12  1  0  0  0  0
  9 27  1  0  0  0  0
 10 28  1  0  0  0  0
 10 29  1  0  0  0  0
 10 30  1  0  0  0  0
 11 31  1  0  0  0  0
 11 32  1  0  0  0  0
 11 33  1  0  0  0  0
 13 14  1  0  0  0  0
 14 15  1  0  0  0  0
 15 16  2  0  0  0  0
 15 35  1  0  0  0  0
 16 17  1  0  0  0  0
 17 19  2  0  0  0  0
 17 20  1  0  0  0  0
 18 36  1  0  0  0  0
 18 37  1  0  0  0  0
 18 38  1  0  0  0  0
 19 21  1  0  0  0  0
 19 39  1  0  0  0  0
 20 22  2  0  0  0  0
 20 40  1  0  0  0  0
 21 23  2  0  0  0  0
 21 41  1  0  0  0  0
 22 23  1  0  0  0  0
 22 42  1  0  0  0  0
 23 43  1  0  0  0  0
M  END
> <PUBCHEM_COMPOUND_CID>
51270462

> <PUBCHEM_COMPOUND_CANONICALIZED>
1

> <PUBCHEM_CACTVS_COMPLEXITY>
407

> <PUBCHEM_CACTVS_HBOND_ACCEPTOR>
5

> <PUBCHEM_CACTVS_HBOND_DONOR>
1

> <PUBCHEM_CACTVS_ROTATABLE_BOND>
7

> <PUBCHEM_CACTVS_SUBSKEYS>
AAADceB7OAAAAAAAAAAAAAAAAAAAAWAAAAAwAAAAAAAAAAABwAAAHgAUAAAADSzBngYyjJLQBACpA6XyWgCCAAAmIgAomKG+bNoKZjqAlbOVMYhm1hmYyce/yKCOAAAAAAAAAAAAAAAAAAAAAAAAAAAAAA==

> <PUBCHEM_IUPAC_OPENEYE_NAME>
methyl 4-methyl-2-[(5-phenylisoxazole-3-carbonyl)amino]pentanoate

> <PUBCHEM_IUPAC_CAS_NAME>
4-methyl-2-[[oxo-(5-phenyl-3-isoxazolyl)methyl]amino]pentanoic acid methyl ester

> <PUBCHEM_IUPAC_NAME_MARKUP>
methyl 4-methyl-2-[(5-phenyl-1,2-oxazole-3-carbonyl)amino]pentanoate

> <PUBCHEM_IUPAC_NAME>
methyl 4-methyl-2-[(5-phenyl-1,2-oxazole-3-carbonyl)amino]pentanoate

> <PUBCHEM_IUPAC_SYSTEMATIC_NAME>
methyl 4-methyl-2-[(5-phenyl-1,2-oxazol-3-yl)carbonylamino]pentanoate

> <PUBCHEM_IUPAC_TRADITIONAL_NAME>
4-methyl-2-[(5-phenylisoxazole-3-carbonyl)amino]valeric acid methyl ester

> <PUBCHEM_IUPAC_INCHI>
InChI=1S/C17H20N2O4/c1-11(2)9-14(17(21)22-3)18-16(20)13-10-15(23-19-13)12-7-5-4-6-8-12/h4-8,10-11,14H,9H2,1-3H3,(H,18,20)

> <PUBCHEM_IUPAC_INCHIKEY>
FRVBHUCZUOZYFR-UHFFFAOYSA-N

> <PUBCHEM_XLOGP3_AA>
3.3

> <PUBCHEM_EXACT_MASS>
316.142307

> <PUBCHEM_MOLECULAR_FORMULA>
C17H20N2O4

> <PUBCHEM_MOLECULAR_WEIGHT>
316.35

> <PUBCHEM_OPENEYE_CAN_SMILES>
CC(C)CC(C(=O)OC)NC(=O)C1=NOC(=C1)C2=CC=CC=C2

> <PUBCHEM_OPENEYE_ISO_SMILES>
CC(C)CC(C(=O)OC)NC(=O)C1=NOC(=C1)C2=CC=CC=C2

> <PUBCHEM_CACTVS_TPSA>
81.4

> <PUBCHEM_MONOISOTOPIC_WEIGHT>
316.142307

> <PUBCHEM_TOTAL_CHARGE>
0

> <PUBCHEM_HEAVY_ATOM_COUNT>
23

> <PUBCHEM_ATOM_DEF_STEREO_COUNT>
0

> <PUBCHEM_ATOM_UDEF_STEREO_COUNT>
1

> <PUBCHEM_BOND_DEF_STEREO_COUNT>
0

> <PUBCHEM_BOND_UDEF_STEREO_COUNT>
0

> <PUBCHEM_ISOTOPIC_ATOM_COUNT>
0

> <PUBCHEM_COMPONENT_COUNT>
1

> <PUBCHEM_CACTVS_TAUTO_COUNT>
-1

> <PUBCHEM_COORDINATE_TYPE>
1
5
255

> <PUBCHEM_BONDANNOTATIONS>
14  15  8
15  16  8
17  19  8
17  20  8
19  21  8
20  22  8
21  23  8
22  23  8
3  16  8
3  6  8
6  14  8
9  8  3

$$$$
52515104
  -OEChem-02212016592D

 50 51  0     1  0  0  0  0  0999 V2000
    4.5768    5.3100    0.0000 O   0  0  0  0  0  0  0  0  0  0  0  0
    5.9781    4.2920    0.0000 O   0  0  0  0  0  0  0  0  0  0  0  0
    3.2202    1.9694    0.0000 O   0  0  0  0  0  0  0  0  0  0  0  0
    2.5436   -2.5313    0.0000 O   0  0  0  0  0  0  0  0  0  0  0  0
    5.4349   -0.8757    0.0000 O   0  0  0  0  0  0  0  0  0  0  0  0
    4.8025    2.6739    0.0000 N   0  0  0  0  0  0  0  0  0  0  0  0
    4.0337    0.1424    0.0000 N   0  0  0  0  0  0  0  0  0  0  0  0
    2.8526   -1.5802    0.0000 N   0  0  0  0  0  0  0  0  0  0  0  0
    2.9945    4.6056    0.0000 C   0  0  0  0  0  0  0  0  0  0  0  0
    3.4013    3.6920    0.0000 C   0  0  0  0  0  0  0  0  0  0  0  0
    4.3958    3.5875    0.0000 C   0  0  1  0  0  0  0  0  0  0  0  0
    2.0000    4.7101    0.0000 C   0  0  0  0  0  0  0  0  0  0  0  0
    3.5823    5.4146    0.0000 C   0  0  0  0  0  0  0  0  0  0  0  0
    4.9836    4.3965    0.0000 C   0  0  0  0  0  0  0  0  0  0  0  0
    4.2147    1.8649    0.0000 C   0  0  0  0  0  0  0  0  0  0  0  0
    4.6215    0.9514    0.0000 C   0  0  0  0  0  0  0  0  0  0  0  0
    5.1646    6.1190    0.0000 C   0  0  0  0  0  0  0  0  0  0  0  0
    4.4404   -0.7712    0.0000 C   0  0  0  0  0  0  0  0  0  0  0  0
    3.8526   -1.5802    0.0000 C   0  0  0  0  0  0  0  0  0  0  0  0
    3.3526   -3.1190    0.0000 C   0  0  0  0  0  0  0  0  0  0  0  0
    4.1616   -2.5313    0.0000 C   0  0  0  0  0  0  0  0  0  0  0  0
    3.3526   -4.1190    0.0000 C   0  0  0  0  0  0  0  0  0  0  0  0
    2.4866   -4.6190    0.0000 C   0  0  0  0  0  0  0  0  0  0  0  0
    4.2187   -4.6190    0.0000 C   0  0  0  0  0  0  0  0  0  0  0  0
    2.4866   -5.6190    0.0000 C   0  0  0  0  0  0  0  0  0  0  0  0
    4.2187   -5.6190    0.0000 C   0  0  0  0  0  0  0  0  0  0  0  0
    3.3526   -6.1190    0.0000 C   0  0  0  0  0  0  0  0  0  0  0  0
    2.7424    5.1720    0.0000 H   0  0  0  0  0  0  0  0  0  0  0  0
    2.7997    3.5420    0.0000 H   0  0  0  0  0  0  0  0  0  0  0  0
    3.4445    3.0735    0.0000 H   0  0  0  0  0  0  0  0  0  0  0  0
    5.0124    3.5227    0.0000 H   0  0  0  0  0  0  0  0  0  0  0  0
    2.0648    5.3267    0.0000 H   0  0  0  0  0  0  0  0  0  0  0  0
    1.3834    4.7749    0.0000 H   0  0  0  0  0  0  0  0  0  0  0  0
    1.9352    4.0935    0.0000 H   0  0  0  0  0  0  0  0  0  0  0  0
    4.0839    5.0501    0.0000 H   0  0  0  0  0  0  0  0  0  0  0  0
    3.9467    5.9162    0.0000 H   0  0  0  0  0  0  0  0  0  0  0  0
    3.0807    5.7790    0.0000 H   0  0  0  0  0  0  0  0  0  0  0  0
    5.4191    2.6091    0.0000 H   0  0  0  0  0  0  0  0  0  0  0  0
    5.0522    0.5054    0.0000 H   0  0  0  0  0  0  0  0  0  0  0  0
    5.1355    1.2981    0.0000 H   0  0  0  0  0  0  0  0  0  0  0  0
    3.4171    0.2072    0.0000 H   0  0  0  0  0  0  0  0  0  0  0  0
    5.6662    5.7546    0.0000 H   0  0  0  0  0  0  0  0  0  0  0  0
    5.5290    6.6206    0.0000 H   0  0  0  0  0  0  0  0  0  0  0  0
    4.6630    6.4835    0.0000 H   0  0  0  0  0  0  0  0  0  0  0  0
    4.7513   -2.7229    0.0000 H   0  0  0  0  0  0  0  0  0  0  0  0
    1.9497   -4.3090    0.0000 H   0  0  0  0  0  0  0  0  0  0  0  0
    4.7556   -4.3090    0.0000 H   0  0  0  0  0  0  0  0  0  0  0  0
    1.9497   -5.9290    0.0000 H   0  0  0  0  0  0  0  0  0  0  0  0
    4.7556   -5.9290    0.0000 H   0  0  0  0  0  0  0  0  0  0  0  0
    3.3526   -6.7390    0.0000 H   0  0  0  0  0  0  0  0  0  0  0  0
  1 14  1  0  0  0  0
  1 17  1  0  0  0  0
  2 14  2  0  0  0  0
  3 15  2  0  0  0  0
  4  8  1  0  0  0  0
  4 20  1  0  0  0  0
  5 18  2  0  0  0  0
 11  6  1  1  0  0  0
  6 15  1  0  0  0  0
  6 38  1  0  0  0  0
  7 16  1  0  0  0  0
  7 18  1  0  0  0  0
  7 41  1  0  0  0  0
  8 19  2  0  0  0  0
  9 10  1  0  0  0  0
  9 12  1  0  0  0  0
  9 13  1  0  0  0  0
  9 28  1  0  0  0  0
 10 11  1  0  0  0  0
 10 29  1  0  0  0  0
 10 30  1  0  0  0  0
 11 14  1  0  0  0  0
 11 31  1  0  0  0  0
 12 32  1  0  0  0  0
 12 33  1  0  0  0  0
 12 34  1  0  0  0  0
 13 35  1  0  0  0  0
 13 36  1  0  0  0  0
 13 37  1  0  0  0  0
 15 16  1  0  0  0  0
 16 39  1  0  0  0  0
 16 40  1  0  0  0  0
 17 42  1  0  0  0  0
 17 43  1  0  0  0  0
 17 44  1  0  0  0  0
 18 19  1  0  0  0  0
 19 21  1  0  0  0  0
 20 21  2  0  0  0  0
 20 22  1  0  0  0  0
 21 45  1  0  0  0  0
 22 23  2  0  0  0  0
 22 24  1  0  0  0  0
 23 25  1  0  0  0  0
 23 46  1  0  0  0  0
 24 26  2  0  0  0  0
 24 47  1  0  0  0  0
 25 27  2  0  0  0  0
 25 48  1  0  0  0  0
 26 27  1  0  0  0  0
 26 49  1  0  0  0  0
 27 50  1  0  0  0  0
M  END
> <PUBCHEM_COMPOUND_CID>
52515104

> <PUBCHEM_COMPOUND_CANONICALIZED>
1

> <PUBCHEM_CACTVS_COMPLEXITY>
520

> <PUBCHEM_CACTVS_HBOND_ACCEPTOR>
6

> <PUBCHEM_CACTVS_HBOND_DONOR>
2

> <PUBCHEM_CACTVS_ROTATABLE_BOND>
9

> <PUBCHEM_CACTVS_SUBSKEYS>
AAADceB7OAAAAAAAAAAAAAAAAAAAAWAAAAAwAAAAAAAAAAABwAAAHgAUAAAADSzBngYyjJLQBACpA6XyWgCCAAAmIgAomKG+bNoKZjqAlbOVMYhm1hmYyce/yKCOAAAAAAAAAAAAAAAAAAAAAAAAAAAAAA==

> <PUBCHEM_IUPAC_OPENEYE_NAME>
methyl (2S)-4-methyl-2-[[2-[(5-phenylisoxazole-3-carbonyl)amino]acetyl]amino]pentanoate

> <PUBCHEM_IUPAC_CAS_NAME>
(2S)-4-methyl-2-[[1-oxo-2-[[oxo-(5-phenyl-3-isoxazolyl)methyl]amino]ethyl]amino]pentanoic acid methyl ester

> <PUBCHEM_IUPAC_NAME_MARKUP>
methyl (2<I>S</I>)-4-methyl-2-[[2-[(5-phenyl-1,2-oxazole-3-carbonyl)amino]acetyl]amino]pentanoate

> <PUBCHEM_IUPAC_NAME>
methyl (2S)-4-methyl-2-[[2-[(5-phenyl-1,2-oxazole-3-carbonyl)amino]acetyl]amino]pentanoate

> <PUBCHEM_IUPAC_SYSTEMATIC_NAME>
methyl (2S)-4-methyl-2-[2-[(5-phenyl-1,2-oxazol-3-yl)carbonylamino]ethanoylamino]pentanoate

> <PUBCHEM_IUPAC_TRADITIONAL_NAME>
(2S)-4-methyl-2-[[2-[(5-phenylisoxazole-3-carbonyl)amino]acetyl]amino]valeric acid methyl ester

> <PUBCHEM_IUPAC_INCHI>
InChI=1S/C19H23N3O5/c1-12(2)9-15(19(25)26-3)21-17(23)11-20-18(24)14-10-16(27-22-14)13-7-5-4-6-8-13/h4-8,10,12,15H,9,11H2,1-3H3,(H,20,24)(H,21,23)/t15-/m0/s1

> <PUBCHEM_IUPAC_INCHIKEY>
WRURTRJEMGQBQX-HNNXBMFYSA-N

> <PUBCHEM_XLOGP3_AA>
2.6

> <PUBCHEM_EXACT_MASS>
373.163771

> <PUBCHEM_MOLECULAR_FORMULA>
C19H23N3O5

> <PUBCHEM_MOLECULAR_WEIGHT>
373.4

> <PUBCHEM_OPENEYE_CAN_SMILES>
CC(C)CC(C(=O)OC)NC(=O)CNC(=O)C1=NOC(=C1)C2=CC=CC=C2

> <PUBCHEM_OPENEYE_ISO_SMILES>
CC(C)C[C@@H](C(=O)OC)NC(=O)CNC(=O)C1=NOC(=C1)C2=CC=CC=C2

> <PUBCHEM_CACTVS_TPSA>
111

> <PUBCHEM_MONOISOTOPIC_WEIGHT>
373.163771

> <PUBCHEM_TOTAL_CHARGE>
0

> <PUBCHEM_HEAVY_ATOM_COUNT>
27

> <PUBCHEM_ATOM_DEF_STEREO_COUNT>
1

> <PUBCHEM_ATOM_UDEF_STEREO_COUNT>
0

> <PUBCHEM_BOND_DEF_STEREO_COUNT>
0

> <PUBCHEM_BOND_UDEF_STEREO_COUNT>
0

> <PUBCHEM_ISOTOPIC_ATOM_COUNT>
0

> <PUBCHEM_COMPONENT_COUNT>
1

> <PUBCHEM_CACTVS_TAUTO_COUNT>
-1

> <PUBCHEM_COORDINATE_TYPE>
1
5
255

> <PUBCHEM_BONDANNOTATIONS>
19  21  8
20  21  8
22  23  8
22  24  8
23  25  8
24  26  8
25  27  8
26  27  8
4  20  8
4  8  8
11  6  5
8  19  8

$$$$
52515106
  -OEChem-02212016592D

 50 51  0     1  0  0  0  0  0999 V2000
    4.5768    5.3100    0.0000 O   0  0  0  0  0  0  0  0  0  0  0  0
    5.9781    4.2920    0.0000 O   0  0  0  0  0  0  0  0  0  0  0  0
    3.2202    1.9694    0.0000 O   0  0  0  0  0  0  0  0  0  0  0  0
    2.5436   -2.5313    0.0000 O   0  0  0  0  0  0  0  0  0  0  0  0
    5.4349   -0.8757    0.0000 O   0  0  0  0  0  0  0  0  0  0  0  0
    4.8025    2.6739    0.0000 N   0  0  0  0  0  0  0  0  0  0  0  0
    4.0337    0.1424    0.0000 N   0  0  0  0  0  0  0  0  0  0  0  0
    2.8526   -1.5802    0.0000 N   0  0  0  0  0  0  0  0  0  0  0  0
    2.9945    4.6056    0.0000 C   0  0  0  0  0  0  0  0  0  0  0  0
    3.4013    3.6920    0.0000 C   0  0  0  0  0  0  0  0  0  0  0  0
    4.3958    3.5875    0.0000 C   0  0  2  0  0  0  0  0  0  0  0  0
    2.0000    4.7101    0.0000 C   0  0  0  0  0  0  0  0  0  0  0  0
    3.5823    5.4146    0.0000 C   0  0  0  0  0  0  0  0  0  0  0  0
    4.9836    4.3965    0.0000 C   0  0  0  0  0  0  0  0  0  0  0  0
    4.2147    1.8649    0.0000 C   0  0  0  0  0  0  0  0  0  0  0  0
    4.6215    0.9514    0.0000 C   0  0  0  0  0  0  0  0  0  0  0  0
    5.1646    6.1190    0.0000 C   0  0  0  0  0  0  0  0  0  0  0  0
    4.4404   -0.7712    0.0000 C   0  0  0  0  0  0  0  0  0  0  0  0
    3.8526   -1.5802    0.0000 C   0  0  0  0  0  0  0  0  0  0  0  0
    3.3526   -3.1190    0.0000 C   0  0  0  0  0  0  0  0  0  0  0  0
    4.1616   -2.5313    0.0000 C   0  0  0  0  0  0  0  0  0  0  0  0
    3.3526   -4.1190    0.0000 C   0  0  0  0  0  0  0  0  0  0  0  0
    2.4866   -4.6190    0.0000 C   0  0  0  0  0  0  0  0  0  0  0  0
    4.2187   -4.6190    0.0000 C   0  0  0  0  0  0  0  0  0  0  0  0
    2.4866   -5.6190    0.0000 C   0  0  0  0  0  0  0  0  0  0  0  0
    4.2187   -5.6190    0.0000 C   0  0  0  0  0  0  0  0  0  0  0  0
    3.3526   -6.1190    0.0000 C   0  0  0  0  0  0  0  0  0  0  0  0
    2.7424    5.1720    0.0000 H   0  0  0  0  0  0  0  0  0  0  0  0
    2.7997    3.5420    0.0000 H   0  0  0  0  0  0  0  0  0  0  0  0
    3.4445    3.0735    0.0000 H   0  0  0  0  0  0  0  0  0  0  0  0
    5.0124    3.5227    0.0000 H   0  0  0  0  0  0  0  0  0  0  0  0
    2.0648    5.3267    0.0000 H   0  0  0  0  0  0  0  0  0  0  0  0
    1.3834    4.7749    0.0000 H   0  0  0  0  0  0  0  0  0  0  0  0
    1.9352    4.0935    0.0000 H   0  0  0  0  0  0  0  0  0  0  0  0
    4.0839    5.0501    0.0000 H   0  0  0  0  0  0  0  0  0  0  0  0
    3.9467    5.9162    0.0000 H   0  0  0  0  0  0  0  0  0  0  0  0
    3.0807    5.7790    0.0000 H   0  0  0  0  0  0  0  0  0  0  0  0
    5.4191    2.6091    0.0000 H   0  0  0  0  0  0  0  0  0  0  0  0
    5.0522    0.5054    0.0000 H   0  0  0  0  0  0  0  0  0  0  0  0
    5.1355    1.2981    0.0000 H   0  0  0  0  0  0  0  0  0  0  0  0
    3.4171    0.2072    0.0000 H   0  0  0  0  0  0  0  0  0  0  0  0
    5.6662    5.7546    0.0000 H   0  0  0  0  0  0  0  0  0  0  0  0
    5.5290    6.6206    0.0000 H   0  0  0  0  0  0  0  0  0  0  0  0
    4.6630    6.4835    0.0000 H   0  0  0  0  0  0  0  0  0  0  0  0
    4.7513   -2.7229    0.0000 H   0  0  0  0  0  0  0  0  0  0  0  0
    1.9497   -4.3090    0.0000 H   0  0  0  0  0  0  0  0  0  0  0  0
    4.7556   -4.3090    0.0000 H   0  0  0  0  0  0  0  0  0  0  0  0
    1.9497   -5.9290    0.0000 H   0  0  0  0  0  0  0  0  0  0  0  0
    4.7556   -5.9290    0.0000 H   0  0  0  0  0  0  0  0  0  0  0  0
    3.3526   -6.7390    0.0000 H   0  0  0  0  0  0  0  0  0  0  0  0
  1 14  1  0  0  0  0
  1 17  1  0  0  0  0
  2 14  2  0  0  0  0
  3 15  2  0  0  0  0
  4  8  1  0  0  0  0
  4 20  1  0  0  0  0
  5 18  2  0  0  0  0
 11  6  1  6  0  0  0
  6 15  1  0  0  0  0
  6 38  1  0  0  0  0
  7 16  1  0  0  0  0
  7 18  1  0  0  0  0
  7 41  1  0  0  0  0
  8 19  2  0  0  0  0
  9 10  1  0  0  0  0
  9 12  1  0  0  0  0
  9 13  1  0  0  0  0
  9 28  1  0  0  0  0
 10 11  1  0  0  0  0
 10 29  1  0  0  0  0
 10 30  1  0  0  0  0
 11 14  1  0  0  0  0
 11 31  1  0  0  0  0
 12 32  1  0  0  0  0
 12 33  1  0  0  0  0
 12 34  1  0  0  0  0
 13 35  1  0  0  0  0
 13 36  1  0  0  0  0
 13 37  1  0  0  0  0
 15 16  1  0  0  0  0
 16 39  1  0  0  0  0
 16 40  1  0  0  0  0
 17 42  1  0  0  0  0
 17 43  1  0  0  0  0
 17 44  1  0  0  0  0
 18 19  1  0  0  0  0
 19 21  1  0  0  0  0
 20 21  2  0  0  0  0
 20 22  1  0  0  0  0
 21 45  1  0  0  0  0
 22 23  2  0  0  0  0
 22 24  1  0  0  0  0
 23 25  1  0  0  0  0
 23 46  1  0  0  0  0
 24 26  2  0  0  0  0
 24 47  1  0  0  0  0
 25 27  2  0  0  0  0
 25 48  1  0  0  0  0
 26 27  1  0  0  0  0
 26 49  1  0  0  0  0
 27 50  1  0  0  0  0
M  END
> <PUBCHEM_COMPOUND_CID>
52515106

> <PUBCHEM_COMPOUND_CANONICALIZED>
1

> <PUBCHEM_CACTVS_COMPLEXITY>
520

> <PUBCHEM_CACTVS_HBOND_ACCEPTOR>
6

> <PUBCHEM_CACTVS_HBOND_DONOR>
2

> <PUBCHEM_CACTVS_ROTATABLE_BOND>
9

> <PUBCHEM_CACTVS_SUBSKEYS>
AAADceB7OAAAAAAAAAAAAAAAAAAAAWAAAAAwAAAAAAAAAAABwAAAHgAUAAAADSzBngYyjJLQBACpA6XyWgCCAAAmIgAomKG+bNoKZjqAlbOVMYhm1hmYyce/yKCOAAAAAAAAAAAAAAAAAAAAAAAAAAAAAA==

> <PUBCHEM_IUPAC_OPENEYE_NAME>
methyl (2R)-4-methyl-2-[[2-[(5-phenylisoxazole-3-carbonyl)amino]acetyl]amino]pentanoate

> <PUBCHEM_IUPAC_CAS_NAME>
(2R)-4-methyl-2-[[1-oxo-2-[[oxo-(5-phenyl-3-isoxazolyl)methyl]amino]ethyl]amino]pentanoic acid methyl ester

> <PUBCHEM_IUPAC_NAME_MARKUP>
methyl (2<I>R</I>)-4-methyl-2-[[2-[(5-phenyl-1,2-oxazole-3-carbonyl)amino]acetyl]amino]pentanoate

> <PUBCHEM_IUPAC_NAME>
methyl (2R)-4-methyl-2-[[2-[(5-phenyl-1,2-oxazole-3-carbonyl)amino]acetyl]amino]pentanoate

> <PUBCHEM_IUPAC_SYSTEMATIC_NAME>
methyl (2R)-4-methyl-2-[2-[(5-phenyl-1,2-oxazol-3-yl)carbonylamino]ethanoylamino]pentanoate

> <PUBCHEM_IUPAC_TRADITIONAL_NAME>
(2R)-4-methyl-2-[[2-[(5-phenylisoxazole-3-carbonyl)amino]acetyl]amino]valeric acid methyl ester

> <PUBCHEM_IUPAC_INCHI>
InChI=1S/C19H23N3O5/c1-12(2)9-15(19(25)26-3)21-17(23)11-20-18(24)14-10-16(27-22-14)13-7-5-4-6-8-13/h4-8,10,12,15H,9,11H2,1-3H3,(H,20,24)(H,21,23)/t15-/m1/s1

> <PUBCHEM_IUPAC_INCHIKEY>
WRURTRJEMGQBQX-OAHLLOKOSA-N

> <PUBCHEM_XLOGP3_AA>
2.6

> <PUBCHEM_EXACT_MASS>
373.163771

> <PUBCHEM_MOLECULAR_FORMULA>
C19H23N3O5

> <PUBCHEM_MOLECULAR_WEIGHT>
373.4

> <PUBCHEM_OPENEYE_CAN_SMILES>
CC(C)CC(C(=O)OC)NC(=O)CNC(=O)C1=NOC(=C1)C2=CC=CC=C2

> <PUBCHEM_OPENEYE_ISO_SMILES>
CC(C)C[C@H](C(=O)OC)NC(=O)CNC(=O)C1=NOC(=C1)C2=CC=CC=C2

> <PUBCHEM_CACTVS_TPSA>
111

> <PUBCHEM_MONOISOTOPIC_WEIGHT>
373.163771

> <PUBCHEM_TOTAL_CHARGE>
0

> <PUBCHEM_HEAVY_ATOM_COUNT>
27

> <PUBCHEM_ATOM_DEF_STEREO_COUNT>
1

> <PUBCHEM_ATOM_UDEF_STEREO_COUNT>
0

> <PUBCHEM_BOND_DEF_STEREO_COUNT>
0

> <PUBCHEM_BOND_UDEF_STEREO_COUNT>
0

> <PUBCHEM_ISOTOPIC_ATOM_COUNT>
0

> <PUBCHEM_COMPONENT_COUNT>
1

> <PUBCHEM_CACTVS_TAUTO_COUNT>
-1

> <PUBCHEM_COORDINATE_TYPE>
1
5
255

> <PUBCHEM_BONDANNOTATIONS>
19  21  8
20  21  8
22  23  8
22  24  8
23  25  8
24  26  8
25  27  8
26  27  8
4  20  8
4  8  8
11  6  6
8  19  8

$$$$
53831067
  -OEChem-02212016592D

 83 84  0     1  0  0  0  0  0999 V2000
    5.3147    0.9420    0.0000 O   0  0  0  0  0  0  0  0  0  0  0  0
    7.9128   -1.5580    0.0000 O   0  0  0  0  0  0  0  0  0  0  0  0
    4.4487    1.4420    0.0000 O   0  0  0  0  0  0  0  0  0  0  0  0
    2.0000    3.2784    0.0000 O   0  0  0  0  0  0  0  0  0  0  0  0
   12.2429    0.9420    0.0000 O   0  0  0  0  0  0  0  0  0  0  0  0
   11.3769   -3.5580    0.0000 O   0  0  0  0  0  0  0  0  0  0  0  0
    9.6448   -3.5580    0.0000 O   0  0  0  0  0  0  0  0  0  0  0  0
    7.0468    0.9420    0.0000 N   0  0  0  0  0  0  0  0  0  0  0  0
    5.3147    2.9420    0.0000 N   0  0  0  0  0  0  0  0  0  0  0  0
    8.7788   -0.0580    0.0000 N   0  0  0  0  0  0  0  0  0  0  0  0
    2.6691    2.5353    0.0000 N   0  0  0  0  0  0  0  0  0  0  0  0
   13.1090   -0.5580    0.0000 N   0  0  0  0  0  0  0  0  0  0  0  0
    6.1808    2.4420    0.0000 C   0  0  1  0  0  0  0  0  0  0  0  0
    7.0468    2.9420    0.0000 C   0  0  0  0  0  0  0  0  0  0  0  0
    7.0468   -0.0580    0.0000 C   0  0  1  0  0  0  0  0  0  0  0  0
    7.0468    3.9420    0.0000 C   0  0  0  0  0  0  0  0  0  0  0  0
    6.1808    1.4420    0.0000 C   0  0  0  0  0  0  0  0  0  0  0  0
    6.1808   -0.5580    0.0000 C   0  0  0  0  0  0  0  0  0  0  0  0
    7.9128   -0.5580    0.0000 C   0  0  0  0  0  0  0  0  0  0  0  0
    7.9128    4.4420    0.0000 C   0  0  0  0  0  0  0  0  0  0  0  0
    6.1808    4.4420    0.0000 C   0  0  0  0  0  0  0  0  0  0  0  0
    9.6448   -0.5580    0.0000 C   0  0  1  0  0  0  0  0  0  0  0  0
    7.9128    1.4420    0.0000 C   0  0  0  0  0  0  0  0  0  0  0  0
    6.1808   -1.5580    0.0000 C   0  0  0  0  0  0  0  0  0  0  0  0
   10.5109   -0.0580    0.0000 C   0  0  0  0  0  0  0  0  0  0  0  0
    4.4487    2.4420    0.0000 C   0  0  0  0  0  0  0  0  0  0  0  0
   11.3769   -0.5580    0.0000 C   0  0  0  0  0  0  0  0  0  0  0  0
    9.6448   -1.5580    0.0000 C   0  0  0  0  0  0  0  0  0  0  0  0
    5.3147   -2.0580    0.0000 C   0  0  0  0  0  0  0  0  0  0  0  0
    7.0468   -2.0580    0.0000 C   0  0  0  0  0  0  0  0  0  0  0  0
    3.5827    2.9420    0.0000 C   0  0  0  0  0  0  0  0  0  0  0  0
    5.3147   -3.0580    0.0000 C   0  0  0  0  0  0  0  0  0  0  0  0
    7.0468   -3.0580    0.0000 C   0  0  0  0  0  0  0  0  0  0  0  0
    6.1808   -3.5580    0.0000 C   0  0  0  0  0  0  0  0  0  0  0  0
   12.2429   -0.0580    0.0000 C   0  0  0  0  0  0  0  0  0  0  0  0
   10.5109   -2.0580    0.0000 C   0  0  0  0  0  0  0  0  0  0  0  0
    3.4782    3.9365    0.0000 C   0  0  0  0  0  0  0  0  0  0  0  0
    2.5000    4.1444    0.0000 C   0  0  0  0  0  0  0  0  0  0  0  0
   10.5109   -3.0580    0.0000 C   0  0  0  0  0  0  0  0  0  0  0  0
    2.0933    5.0580    0.0000 C   0  0  0  0  0  0  0  0  0  0  0  0
   11.3769   -4.5580    0.0000 C   0  0  0  0  0  0  0  0  0  0  0  0
   12.2429   -5.0580    0.0000 C   0  0  0  0  0  0  0  0  0  0  0  0
    6.1808    3.0620    0.0000 H   0  0  0  0  0  0  0  0  0  0  0  0
    7.2588    2.3594    0.0000 H   0  0  0  0  0  0  0  0  0  0  0  0
    7.6574    3.0497    0.0000 H   0  0  0  0  0  0  0  0  0  0  0  0
    7.5837    0.2520    0.0000 H   0  0  0  0  0  0  0  0  0  0  0  0
    7.0468    4.5620    0.0000 H   0  0  0  0  0  0  0  0  0  0  0  0
    5.9687    0.0246    0.0000 H   0  0  0  0  0  0  0  0  0  0  0  0
    5.5702   -0.6657    0.0000 H   0  0  0  0  0  0  0  0  0  0  0  0
    5.3147    3.5620    0.0000 H   0  0  0  0  0  0  0  0  0  0  0  0
    8.2228    3.9051    0.0000 H   0  0  0  0  0  0  0  0  0  0  0  0
    8.4497    4.7520    0.0000 H   0  0  0  0  0  0  0  0  0  0  0  0
    7.6028    4.9790    0.0000 H   0  0  0  0  0  0  0  0  0  0  0  0
    6.4908    4.9790    0.0000 H   0  0  0  0  0  0  0  0  0  0  0  0
    5.6438    4.7520    0.0000 H   0  0  0  0  0  0  0  0  0  0  0  0
    5.8708    3.9051    0.0000 H   0  0  0  0  0  0  0  0  0  0  0  0
    9.1079   -0.8680    0.0000 H   0  0  0  0  0  0  0  0  0  0  0  0
    8.2228    0.9051    0.0000 H   0  0  0  0  0  0  0  0  0  0  0  0
    8.4497    1.7520    0.0000 H   0  0  0  0  0  0  0  0  0  0  0  0
    7.6028    1.9790    0.0000 H   0  0  0  0  0  0  0  0  0  0  0  0
    8.7788    0.5620    0.0000 H   0  0  0  0  0  0  0  0  0  0  0  0
   10.9094    0.4170    0.0000 H   0  0  0  0  0  0  0  0  0  0  0  0
   10.1124    0.4170    0.0000 H   0  0  0  0  0  0  0  0  0  0  0  0
   10.9784   -1.0329    0.0000 H   0  0  0  0  0  0  0  0  0  0  0  0
   11.7754   -1.0329    0.0000 H   0  0  0  0  0  0  0  0  0  0  0  0
    9.1079   -1.8680    0.0000 H   0  0  0  0  0  0  0  0  0  0  0  0
    4.7778   -1.7480    0.0000 H   0  0  0  0  0  0  0  0  0  0  0  0
    7.5837   -1.7480    0.0000 H   0  0  0  0  0  0  0  0  0  0  0  0
    4.7778   -3.3680    0.0000 H   0  0  0  0  0  0  0  0  0  0  0  0
    7.5837   -3.3680    0.0000 H   0  0  0  0  0  0  0  0  0  0  0  0
    6.1808   -4.1780    0.0000 H   0  0  0  0  0  0  0  0  0  0  0  0
   11.0478   -1.7480    0.0000 H   0  0  0  0  0  0  0  0  0  0  0  0
    3.9389    4.3514    0.0000 H   0  0  0  0  0  0  0  0  0  0  0  0
   13.6459   -0.2480    0.0000 H   0  0  0  0  0  0  0  0  0  0  0  0
   13.1090   -1.1780    0.0000 H   0  0  0  0  0  0  0  0  0  0  0  0
    2.6597    5.3102    0.0000 H   0  0  0  0  0  0  0  0  0  0  0  0
    1.8411    5.6244    0.0000 H   0  0  0  0  0  0  0  0  0  0  0  0
    1.5269    4.8058    0.0000 H   0  0  0  0  0  0  0  0  0  0  0  0
   10.7663   -4.4503    0.0000 H   0  0  0  0  0  0  0  0  0  0  0  0
   11.1649   -5.1406    0.0000 H   0  0  0  0  0  0  0  0  0  0  0  0
   11.9329   -5.5949    0.0000 H   0  0  0  0  0  0  0  0  0  0  0  0
   12.7799   -5.3680    0.0000 H   0  0  0  0  0  0  0  0  0  0  0  0
   12.5529   -4.5210    0.0000 H   0  0  0  0  0  0  0  0  0  0  0  0
  1 17  2  0  0  0  0
  2 19  2  0  0  0  0
  3 26  2  0  0  0  0
  4 11  1  0  0  0  0
  4 38  1  0  0  0  0
  5 35  2  0  0  0  0
  6 39  1  0  0  0  0
  6 41  1  0  0  0  0
  7 39  2  0  0  0  0
 15  8  1  6  0  0  0
  8 17  1  0  0  0  0
  8 23  1  0  0  0  0
 13  9  1  1  0  0  0
  9 26  1  0  0  0  0
  9 50  1  0  0  0  0
 10 19  1  0  0  0  0
 22 10  1  1  0  0  0
 10 61  1  0  0  0  0
 11 31  2  0  0  0  0
 12 35  1  0  0  0  0
 12 74  1  0  0  0  0
 12 75  1  0  0  0  0
 13 14  1  0  0  0  0
 13 17  1  0  0  0  0
 13 43  1  0  0  0  0
 14 16  1  0  0  0  0
 14 44  1  0  0  0  0
 14 45  1  0  0  0  0
 15 18  1  0  0  0  0
 15 19  1  0  0  0  0
 15 46  1  0  0  0  0
 16 20  1  0  0  0  0
 16 21  1  0  0  0  0
 16 47  1  0  0  0  0
 18 24  1  0  0  0  0
 18 48  1  0  0  0  0
 18 49  1  0  0  0  0
 20 51  1  0  0  0  0
 20 52  1  0  0  0  0
 20 53  1  0  0  0  0
 21 54  1  0  0  0  0
 21 55  1  0  0  0  0
 21 56  1  0  0  0  0
 22 25  1  0  0  0  0
 22 28  1  0  0  0  0
 22 57  1  0  0  0  0
 23 58  1  0  0  0  0
 23 59  1  0  0  0  0
 23 60  1  0  0  0  0
 24 29  2  0  0  0  0
 24 30  1  0  0  0  0
 25 27  1  0  0  0  0
 25 62  1  0  0  0  0
 25 63  1  0  0  0  0
 26 31  1  0  0  0  0
 27 35  1  0  0  0  0
 27 64  1  0  0  0  0
 27 65  1  0  0  0  0
 28 36  2  3  0  0  0
 28 66  1  0  0  0  0
 29 32  1  0  0  0  0
 29 67  1  0  0  0  0
 30 33  2  0  0  0  0
 30 68  1  0  0  0  0
 31 37  1  0  0  0  0
 32 34  2  0  0  0  0
 32 69  1  0  0  0  0
 33 34  1  0  0  0  0
 33 70  1  0  0  0  0
 34 71  1  0  0  0  0
 36 39  1  0  0  0  0
 36 72  1  0  0  0  0
 37 38  2  0  0  0  0
 37 73  1  0  0  0  0
 38 40  1  0  0  0  0
 40 76  1  0  0  0  0
 40 77  1  0  0  0  0
 40 78  1  0  0  0  0
 41 42  1  0  0  0  0
 41 79  1  0  0  0  0
 41 80  1  0  0  0  0
 42 81  1  0  0  0  0
 42 82  1  0  0  0  0
 42 83  1  0  0  0  0
M  END
> <PUBCHEM_COMPOUND_CID>
53831067

> <PUBCHEM_COMPOUND_CANONICALIZED>
1

> <PUBCHEM_CACTVS_COMPLEXITY>
950

> <PUBCHEM_CACTVS_HBOND_ACCEPTOR>
8

> <PUBCHEM_CACTVS_HBOND_DONOR>
3

> <PUBCHEM_CACTVS_ROTATABLE_BOND>
17

> <PUBCHEM_CACTVS_SUBSKEYS>
AAADcfB7uAAAAAAAAAAAAAAAAAAAAWAAAAAwAAAAAAAAAAABwAAAHgAUAAAADSzhngYyjJPQBACpA6XyWgCCAAAmIgAomKG+bNoIZjqAtbOWMYhmlhiI6cc/iICOAAAAAAAAAAAAAAAAAAAAAAAAAAAAAA==

> <PUBCHEM_IUPAC_OPENEYE_NAME>
ethyl (4S)-7-amino-4-[[(2S)-2-[methyl-[(2S)-4-methyl-2-[(5-methylisoxazole-3-carbonyl)amino]pentanoyl]amino]-3-phenyl-propanoyl]amino]-7-oxo-hept-2-enoate

> <PUBCHEM_IUPAC_CAS_NAME>
(4S)-7-amino-4-[[(2S)-2-[methyl-[(2S)-4-methyl-2-[[(5-methyl-3-isoxazolyl)-oxomethyl]amino]-1-oxopentyl]amino]-1-oxo-3-phenylpropyl]amino]-7-oxo-2-heptenoic acid ethyl ester

> <PUBCHEM_IUPAC_NAME_MARKUP>
ethyl (4<I>S</I>)-7-amino-4-[[(2<I>S</I>)-2-[methyl-[(2<I>S</I>)-4-methyl-2-[(5-methyl-1,2-oxazole-3-carbonyl)amino]pentanoyl]amino]-3-phenylpropanoyl]amino]-7-oxohept-2-enoate

> <PUBCHEM_IUPAC_NAME>
ethyl (4S)-7-amino-4-[[(2S)-2-[methyl-[(2S)-4-methyl-2-[(5-methyl-1,2-oxazole-3-carbonyl)amino]pentanoyl]amino]-3-phenylpropanoyl]amino]-7-oxohept-2-enoate

> <PUBCHEM_IUPAC_SYSTEMATIC_NAME>
ethyl (4S)-7-azanyl-4-[[(2S)-2-[methyl-[(2S)-4-methyl-2-[(5-methyl-1,2-oxazol-3-yl)carbonylamino]pentanoyl]amino]-3-phenyl-propanoyl]amino]-7-oxidanylidene-hept-2-enoate

> <PUBCHEM_IUPAC_TRADITIONAL_NAME>
(4S)-7-amino-7-keto-4-[[(2S)-2-[methyl-[(2S)-4-methyl-2-[(5-methylisoxazole-3-carbonyl)amino]pentanoyl]amino]-3-phenyl-propanoyl]amino]hept-2-enoic acid ethyl ester

> <PUBCHEM_IUPAC_INCHI>
InChI=1S/C30H41N5O7/c1-6-41-27(37)15-13-22(12-14-26(31)36)32-29(39)25(18-21-10-8-7-9-11-21)35(5)30(40)24(16-19(2)3)33-28(38)23-17-20(4)42-34-23/h7-11,13,15,17,19,22,24-25H,6,12,14,16,18H2,1-5H3,(H2,31,36)(H,32,39)(H,33,38)/t22-,24-,25-/m0/s1

> <PUBCHEM_IUPAC_INCHIKEY>
GCMBSRPWEFZQKW-HVCNVCAESA-N

> <PUBCHEM_XLOGP3_AA>
2.7

> <PUBCHEM_EXACT_MASS>
583.300599

> <PUBCHEM_MOLECULAR_FORMULA>
C30H41N5O7

> <PUBCHEM_MOLECULAR_WEIGHT>
583.7

> <PUBCHEM_OPENEYE_CAN_SMILES>
CCOC(=O)C=CC(CCC(=O)N)NC(=O)C(CC1=CC=CC=C1)N(C)C(=O)C(CC(C)C)NC(=O)C2=NOC(=C2)C

> <PUBCHEM_OPENEYE_ISO_SMILES>
CCOC(=O)C=C[C@H](CCC(=O)N)NC(=O)[C@H](CC1=CC=CC=C1)N(C)C(=O)[C@H](CC(C)C)NC(=O)C2=NOC(=C2)C

> <PUBCHEM_CACTVS_TPSA>
174

> <PUBCHEM_MONOISOTOPIC_WEIGHT>
583.300599

> <PUBCHEM_TOTAL_CHARGE>
0

> <PUBCHEM_HEAVY_ATOM_COUNT>
42

> <PUBCHEM_ATOM_DEF_STEREO_COUNT>
3

> <PUBCHEM_ATOM_UDEF_STEREO_COUNT>
0

> <PUBCHEM_BOND_DEF_STEREO_COUNT>
0

> <PUBCHEM_BOND_UDEF_STEREO_COUNT>
1

> <PUBCHEM_ISOTOPIC_ATOM_COUNT>
0

> <PUBCHEM_COMPONENT_COUNT>
1

> <PUBCHEM_CACTVS_TAUTO_COUNT>
-1

> <PUBCHEM_COORDINATE_TYPE>
1
5
255

> <PUBCHEM_BONDANNOTATIONS>
22  10  5
11  31  8
24  29  8
24  30  8
28  36  1
29  32  8
30  33  8
31  37  8
32  34  8
33  34  8
37  38  8
4  11  8
4  38  8
15  8  6
13  9  5

$$$$
54296624
  -OEChem-02212016592D

 83 84  0     1  0  0  0  0  0999 V2000
    6.1808   -4.5580    0.0000 F   0  0  0  0  0  0  0  0  0  0  0  0
    5.3147    0.9420    0.0000 O   0  0  0  0  0  0  0  0  0  0  0  0
    7.9128   -1.5580    0.0000 O   0  0  0  0  0  0  0  0  0  0  0  0
    4.4487    1.4420    0.0000 O   0  0  0  0  0  0  0  0  0  0  0  0
    2.0000    3.2784    0.0000 O   0  0  0  0  0  0  0  0  0  0  0  0
   12.2429    0.9420    0.0000 O   0  0  0  0  0  0  0  0  0  0  0  0
   11.3769   -3.5580    0.0000 O   0  0  0  0  0  0  0  0  0  0  0  0
    9.6448   -3.5580    0.0000 O   0  0  0  0  0  0  0  0  0  0  0  0
    7.0468    0.9420    0.0000 N   0  0  0  0  0  0  0  0  0  0  0  0
    5.3147    2.9420    0.0000 N   0  0  0  0  0  0  0  0  0  0  0  0
    8.7788   -0.0580    0.0000 N   0  0  0  0  0  0  0  0  0  0  0  0
    2.6691    2.5353    0.0000 N   0  0  0  0  0  0  0  0  0  0  0  0
   13.1090   -0.5580    0.0000 N   0  0  0  0  0  0  0  0  0  0  0  0
    6.1808    2.4420    0.0000 C   0  0  1  0  0  0  0  0  0  0  0  0
    7.0468    2.9420    0.0000 C   0  0  0  0  0  0  0  0  0  0  0  0
    7.0468   -0.0580    0.0000 C   0  0  1  0  0  0  0  0  0  0  0  0
    7.0468    3.9420    0.0000 C   0  0  0  0  0  0  0  0  0  0  0  0
    6.1808    1.4420    0.0000 C   0  0  0  0  0  0  0  0  0  0  0  0
    6.1808   -0.5580    0.0000 C   0  0  0  0  0  0  0  0  0  0  0  0
    7.9128   -0.5580    0.0000 C   0  0  0  0  0  0  0  0  0  0  0  0
    7.9128    4.4420    0.0000 C   0  0  0  0  0  0  0  0  0  0  0  0
    6.1808    4.4420    0.0000 C   0  0  0  0  0  0  0  0  0  0  0  0
    9.6448   -0.5580    0.0000 C   0  0  1  0  0  0  0  0  0  0  0  0
    7.9128    1.4420    0.0000 C   0  0  0  0  0  0  0  0  0  0  0  0
    6.1808   -1.5580    0.0000 C   0  0  0  0  0  0  0  0  0  0  0  0
   10.5109   -0.0580    0.0000 C   0  0  0  0  0  0  0  0  0  0  0  0
    4.4487    2.4420    0.0000 C   0  0  0  0  0  0  0  0  0  0  0  0
   11.3769   -0.5580    0.0000 C   0  0  0  0  0  0  0  0  0  0  0  0
    9.6448   -1.5580    0.0000 C   0  0  0  0  0  0  0  0  0  0  0  0
    7.0468   -2.0580    0.0000 C   0  0  0  0  0  0  0  0  0  0  0  0
    5.3147   -2.0580    0.0000 C   0  0  0  0  0  0  0  0  0  0  0  0
    3.5827    2.9420    0.0000 C   0  0  0  0  0  0  0  0  0  0  0  0
    7.0468   -3.0580    0.0000 C   0  0  0  0  0  0  0  0  0  0  0  0
    5.3147   -3.0580    0.0000 C   0  0  0  0  0  0  0  0  0  0  0  0
    6.1808   -3.5580    0.0000 C   0  0  0  0  0  0  0  0  0  0  0  0
   12.2429   -0.0580    0.0000 C   0  0  0  0  0  0  0  0  0  0  0  0
   10.5109   -2.0580    0.0000 C   0  0  0  0  0  0  0  0  0  0  0  0
    3.4782    3.9365    0.0000 C   0  0  0  0  0  0  0  0  0  0  0  0
    2.5000    4.1444    0.0000 C   0  0  0  0  0  0  0  0  0  0  0  0
   10.5109   -3.0580    0.0000 C   0  0  0  0  0  0  0  0  0  0  0  0
    2.0933    5.0580    0.0000 C   0  0  0  0  0  0  0  0  0  0  0  0
   11.3769   -4.5580    0.0000 C   0  0  0  0  0  0  0  0  0  0  0  0
   12.2429   -5.0580    0.0000 C   0  0  0  0  0  0  0  0  0  0  0  0
    6.1808    3.0620    0.0000 H   0  0  0  0  0  0  0  0  0  0  0  0
    7.2588    2.3594    0.0000 H   0  0  0  0  0  0  0  0  0  0  0  0
    7.6574    3.0497    0.0000 H   0  0  0  0  0  0  0  0  0  0  0  0
    7.5837    0.2520    0.0000 H   0  0  0  0  0  0  0  0  0  0  0  0
    7.0468    4.5620    0.0000 H   0  0  0  0  0  0  0  0  0  0  0  0
    5.9687    0.0246    0.0000 H   0  0  0  0  0  0  0  0  0  0  0  0
    5.5702   -0.6657    0.0000 H   0  0  0  0  0  0  0  0  0  0  0  0
    5.3147    3.5620    0.0000 H   0  0  0  0  0  0  0  0  0  0  0  0
    8.2228    3.9051    0.0000 H   0  0  0  0  0  0  0  0  0  0  0  0
    8.4497    4.7520    0.0000 H   0  0  0  0  0  0  0  0  0  0  0  0
    7.6028    4.9790    0.0000 H   0  0  0  0  0  0  0  0  0  0  0  0
    6.4908    4.9790    0.0000 H   0  0  0  0  0  0  0  0  0  0  0  0
    5.6438    4.7520    0.0000 H   0  0  0  0  0  0  0  0  0  0  0  0
    5.8708    3.9051    0.0000 H   0  0  0  0  0  0  0  0  0  0  0  0
    9.1079   -0.8680    0.0000 H   0  0  0  0  0  0  0  0  0  0  0  0
    8.2228    0.9051    0.0000 H   0  0  0  0  0  0  0  0  0  0  0  0
    8.4497    1.7520    0.0000 H   0  0  0  0  0  0  0  0  0  0  0  0
    7.6028    1.9790    0.0000 H   0  0  0  0  0  0  0  0  0  0  0  0
    8.7788    0.5620    0.0000 H   0  0  0  0  0  0  0  0  0  0  0  0
   10.9094    0.4170    0.0000 H   0  0  0  0  0  0  0  0  0  0  0  0
   10.1124    0.4170    0.0000 H   0  0  0  0  0  0  0  0  0  0  0  0
   10.9784   -1.0329    0.0000 H   0  0  0  0  0  0  0  0  0  0  0  0
   11.7754   -1.0329    0.0000 H   0  0  0  0  0  0  0  0  0  0  0  0
    9.1079   -1.8680    0.0000 H   0  0  0  0  0  0  0  0  0  0  0  0
    7.5837   -1.7480    0.0000 H   0  0  0  0  0  0  0  0  0  0  0  0
    4.7778   -1.7480    0.0000 H   0  0  0  0  0  0  0  0  0  0  0  0
    7.5837   -3.3680    0.0000 H   0  0  0  0  0  0  0  0  0  0  0  0
    4.7778   -3.3680    0.0000 H   0  0  0  0  0  0  0  0  0  0  0  0
   11.0478   -1.7480    0.0000 H   0  0  0  0  0  0  0  0  0  0  0  0
    3.9389    4.3514    0.0000 H   0  0  0  0  0  0  0  0  0  0  0  0
   13.6459   -0.2480    0.0000 H   0  0  0  0  0  0  0  0  0  0  0  0
   13.1090   -1.1780    0.0000 H   0  0  0  0  0  0  0  0  0  0  0  0
    2.6597    5.3102    0.0000 H   0  0  0  0  0  0  0  0  0  0  0  0
    1.8411    5.6244    0.0000 H   0  0  0  0  0  0  0  0  0  0  0  0
    1.5269    4.8058    0.0000 H   0  0  0  0  0  0  0  0  0  0  0  0
   10.7663   -4.4503    0.0000 H   0  0  0  0  0  0  0  0  0  0  0  0
   11.1649   -5.1406    0.0000 H   0  0  0  0  0  0  0  0  0  0  0  0
   11.9329   -5.5949    0.0000 H   0  0  0  0  0  0  0  0  0  0  0  0
   12.7799   -5.3680    0.0000 H   0  0  0  0  0  0  0  0  0  0  0  0
   12.5529   -4.5210    0.0000 H   0  0  0  0  0  0  0  0  0  0  0  0
  1 35  1  0  0  0  0
  2 18  2  0  0  0  0
  3 20  2  0  0  0  0
  4 27  2  0  0  0  0
  5 12  1  0  0  0  0
  5 39  1  0  0  0  0
  6 36  2  0  0  0  0
  7 40  1  0  0  0  0
  7 42  1  0  0  0  0
  8 40  2  0  0  0  0
 16  9  1  6  0  0  0
  9 18  1  0  0  0  0
  9 24  1  0  0  0  0
 14 10  1  1  0  0  0
 10 27  1  0  0  0  0
 10 51  1  0  0  0  0
 11 20  1  0  0  0  0
 23 11  1  1  0  0  0
 11 62  1  0  0  0  0
 12 32  2  0  0  0  0
 13 36  1  0  0  0  0
 13 74  1  0  0  0  0
 13 75  1  0  0  0  0
 14 15  1  0  0  0  0
 14 18  1  0  0  0  0
 14 44  1  0  0  0  0
 15 17  1  0  0  0  0
 15 45  1  0  0  0  0
 15 46  1  0  0  0  0
 16 19  1  0  0  0  0
 16 20  1  0  0  0  0
 16 47  1  0  0  0  0
 17 21  1  0  0  0  0
 17 22  1  0  0  0  0
 17 48  1  0  0  0  0
 19 25  1  0  0  0  0
 19 49  1  0  0  0  0
 19 50  1  0  0  0  0
 21 52  1  0  0  0  0
 21 53  1  0  0  0  0
 21 54  1  0  0  0  0
 22 55  1  0  0  0  0
 22 56  1  0  0  0  0
 22 57  1  0  0  0  0
 23 26  1  0  0  0  0
 23 29  1  0  0  0  0
 23 58  1  0  0  0  0
 24 59  1  0  0  0  0
 24 60  1  0  0  0  0
 24 61  1  0  0  0  0
 25 30  2  0  0  0  0
 25 31  1  0  0  0  0
 26 28  1  0  0  0  0
 26 63  1  0  0  0  0
 26 64  1  0  0  0  0
 27 32  1  0  0  0  0
 28 36  1  0  0  0  0
 28 65  1  0  0  0  0
 28 66  1  0  0  0  0
 29 37  2  3  0  0  0
 29 67  1  0  0  0  0
 30 33  1  0  0  0  0
 30 68  1  0  0  0  0
 31 34  2  0  0  0  0
 31 69  1  0  0  0  0
 32 38  1  0  0  0  0
 33 35  2  0  0  0  0
 33 70  1  0  0  0  0
 34 35  1  0  0  0  0
 34 71  1  0  0  0  0
 37 40  1  0  0  0  0
 37 72  1  0  0  0  0
 38 39  2  0  0  0  0
 38 73  1  0  0  0  0
 39 41  1  0  0  0  0
 41 76  1  0  0  0  0
 41 77  1  0  0  0  0
 41 78  1  0  0  0  0
 42 43  1  0  0  0  0
 42 79  1  0  0  0  0
 42 80  1  0  0  0  0
 43 81  1  0  0  0  0
 43 82  1  0  0  0  0
 43 83  1  0  0  0  0
M  END
> <PUBCHEM_COMPOUND_CID>
54296624

> <PUBCHEM_COMPOUND_CANONICALIZED>
1

> <PUBCHEM_CACTVS_COMPLEXITY>
986

> <PUBCHEM_CACTVS_HBOND_ACCEPTOR>
9

> <PUBCHEM_CACTVS_HBOND_DONOR>
3

> <PUBCHEM_CACTVS_ROTATABLE_BOND>
17

> <PUBCHEM_CACTVS_SUBSKEYS>
AAADcfB7uQAAAAAAAAAAAAAAAAAAAWAAAAAwAAAAAAAAAAABwAAAHwAUAAAADSzhng4yjJPQBACpA6XyWgCCAAAmIgAomKG+bNoIZjqAtbOWMYhmlhiI6cc/iICOAAAAAAAAAAAAAAAAAAAAAAAAAAAAAA==

> <PUBCHEM_IUPAC_OPENEYE_NAME>
ethyl (4S)-7-amino-4-[[(2S)-3-(4-fluorophenyl)-2-[methyl-[(2S)-4-methyl-2-[(5-methylisoxazole-3-carbonyl)amino]pentanoyl]amino]propanoyl]amino]-7-oxo-hept-2-enoate

> <PUBCHEM_IUPAC_CAS_NAME>
(4S)-7-amino-4-[[(2S)-3-(4-fluorophenyl)-2-[methyl-[(2S)-4-methyl-2-[[(5-methyl-3-isoxazolyl)-oxomethyl]amino]-1-oxopentyl]amino]-1-oxopropyl]amino]-7-oxo-2-heptenoic acid ethyl ester

> <PUBCHEM_IUPAC_NAME_MARKUP>
ethyl (4<I>S</I>)-7-amino-4-[[(2<I>S</I>)-3-(4-fluorophenyl)-2-[methyl-[(2<I>S</I>)-4-methyl-2-[(5-methyl-1,2-oxazole-3-carbonyl)amino]pentanoyl]amino]propanoyl]amino]-7-oxohept-2-enoate

> <PUBCHEM_IUPAC_NAME>
ethyl (4S)-7-amino-4-[[(2S)-3-(4-fluorophenyl)-2-[methyl-[(2S)-4-methyl-2-[(5-methyl-1,2-oxazole-3-carbonyl)amino]pentanoyl]amino]propanoyl]amino]-7-oxohept-2-enoate

> <PUBCHEM_IUPAC_SYSTEMATIC_NAME>
ethyl (4S)-7-azanyl-4-[[(2S)-3-(4-fluorophenyl)-2-[methyl-[(2S)-4-methyl-2-[(5-methyl-1,2-oxazol-3-yl)carbonylamino]pentanoyl]amino]propanoyl]amino]-7-oxidanylidene-hept-2-enoate

> <PUBCHEM_IUPAC_TRADITIONAL_NAME>
(4S)-7-amino-4-[[(2S)-3-(4-fluorophenyl)-2-[methyl-[(2S)-4-methyl-2-[(5-methylisoxazole-3-carbonyl)amino]pentanoyl]amino]propanoyl]amino]-7-keto-hept-2-enoic acid ethyl ester

> <PUBCHEM_IUPAC_INCHI>
InChI=1S/C30H40FN5O7/c1-6-42-27(38)14-12-22(11-13-26(32)37)33-29(40)25(17-20-7-9-21(31)10-8-20)36(5)30(41)24(15-18(2)3)34-28(39)23-16-19(4)43-35-23/h7-10,12,14,16,18,22,24-25H,6,11,13,15,17H2,1-5H3,(H2,32,37)(H,33,40)(H,34,39)/t22-,24-,25-/m0/s1

> <PUBCHEM_IUPAC_INCHIKEY>
SBFKUKHKIOGZJR-HVCNVCAESA-N

> <PUBCHEM_XLOGP3_AA>
2.8

> <PUBCHEM_EXACT_MASS>
601.291177

> <PUBCHEM_MOLECULAR_FORMULA>
C30H40FN5O7

> <PUBCHEM_MOLECULAR_WEIGHT>
601.7

> <PUBCHEM_OPENEYE_CAN_SMILES>
CCOC(=O)C=CC(CCC(=O)N)NC(=O)C(CC1=CC=C(C=C1)F)N(C)C(=O)C(CC(C)C)NC(=O)C2=NOC(=C2)C

> <PUBCHEM_OPENEYE_ISO_SMILES>
CCOC(=O)C=C[C@H](CCC(=O)N)NC(=O)[C@H](CC1=CC=C(C=C1)F)N(C)C(=O)[C@H](CC(C)C)NC(=O)C2=NOC(=C2)C

> <PUBCHEM_CACTVS_TPSA>
174

> <PUBCHEM_MONOISOTOPIC_WEIGHT>
601.291177

> <PUBCHEM_TOTAL_CHARGE>
0

> <PUBCHEM_HEAVY_ATOM_COUNT>
43

> <PUBCHEM_ATOM_DEF_STEREO_COUNT>
3

> <PUBCHEM_ATOM_UDEF_STEREO_COUNT>
0

> <PUBCHEM_BOND_DEF_STEREO_COUNT>
0

> <PUBCHEM_BOND_UDEF_STEREO_COUNT>
1

> <PUBCHEM_ISOTOPIC_ATOM_COUNT>
0

> <PUBCHEM_COMPONENT_COUNT>
1

> <PUBCHEM_CACTVS_TAUTO_COUNT>
-1

> <PUBCHEM_COORDINATE_TYPE>
1
5
255

> <PUBCHEM_BONDANNOTATIONS>
14  10  5
23  11  5
12  32  8
25  30  8
25  31  8
29  37  1
30  33  8
31  34  8
32  38  8
33  35  8
34  35  8
38  39  8
5  12  8
5  39  8
16  9  6

$$$$
56292104
  -OEChem-02212016592D

 51 52  0     0  0  0  0  0  0999 V2000
    4.6780    4.3965    0.0000 O   0  0  0  0  0  0  0  0  0  0  0  0
    2.0570   -4.2538    0.0000 O   0  0  0  0  0  0  0  0  0  0  0  0
    2.7336    0.2469    0.0000 O   0  0  0  0  0  0  0  0  0  0  0  0
    4.9483   -2.5983    0.0000 O   0  0  0  0  0  0  0  0  0  0  0  0
    4.3159    0.9514    0.0000 N   0  0  0  0  0  0  0  0  0  0  0  0
    3.5471   -1.5802    0.0000 N   0  0  0  0  0  0  0  0  0  0  0  0
    2.3660   -3.3028    0.0000 N   0  0  0  0  0  0  0  0  0  0  0  0
    4.4970    2.6739    0.0000 C   0  0  0  0  0  0  0  0  0  0  0  0
    4.0902    3.5875    0.0000 C   0  0  0  0  0  0  0  0  0  0  0  0
    4.8590    6.1190    0.0000 C   0  0  0  0  0  0  0  0  0  0  0  0
    3.9092    1.8649    0.0000 C   0  0  0  0  0  0  0  0  0  0  0  0
    4.2713    5.3100    0.0000 C   0  0  0  0  0  0  0  0  0  0  0  0
    4.4523    7.0326    0.0000 C   0  0  0  0  0  0  0  0  0  0  0  0
    5.0401    7.8416    0.0000 C   0  0  0  0  0  0  0  0  0  0  0  0
    3.7281    0.1424    0.0000 C   0  0  0  0  0  0  0  0  0  0  0  0
    4.1349   -0.7712    0.0000 C   0  0  0  0  0  0  0  0  0  0  0  0
    3.3660   -3.3028    0.0000 C   0  0  0  0  0  0  0  0  0  0  0  0
    2.8660   -4.8416    0.0000 C   0  0  0  0  0  0  0  0  0  0  0  0
    3.9538   -2.4938    0.0000 C   0  0  0  0  0  0  0  0  0  0  0  0
    2.8660   -5.8416    0.0000 C   0  0  0  0  0  0  0  0  0  0  0  0
    3.6750   -4.2538    0.0000 C   0  0  0  0  0  0  0  0  0  0  0  0
    2.0000   -6.3416    0.0000 C   0  0  0  0  0  0  0  0  0  0  0  0
    3.7320   -6.3416    0.0000 C   0  0  0  0  0  0  0  0  0  0  0  0
    2.0000   -7.3416    0.0000 C   0  0  0  0  0  0  0  0  0  0  0  0
    3.7320   -7.3416    0.0000 C   0  0  0  0  0  0  0  0  0  0  0  0
    2.8660   -7.8416    0.0000 C   0  0  0  0  0  0  0  0  0  0  0  0
    4.9276    2.2279    0.0000 H   0  0  0  0  0  0  0  0  0  0  0  0
    5.0110    3.0206    0.0000 H   0  0  0  0  0  0  0  0  0  0  0  0
    3.6595    4.0335    0.0000 H   0  0  0  0  0  0  0  0  0  0  0  0
    3.5762    3.2408    0.0000 H   0  0  0  0  0  0  0  0  0  0  0  0
    5.2897    5.6731    0.0000 H   0  0  0  0  0  0  0  0  0  0  0  0
    5.3731    6.4658    0.0000 H   0  0  0  0  0  0  0  0  0  0  0  0
    3.4785    2.3109    0.0000 H   0  0  0  0  0  0  0  0  0  0  0  0
    3.3952    1.5182    0.0000 H   0  0  0  0  0  0  0  0  0  0  0  0
    3.8406    5.7560    0.0000 H   0  0  0  0  0  0  0  0  0  0  0  0
    3.7573    4.9633    0.0000 H   0  0  0  0  0  0  0  0  0  0  0  0
    4.0216    7.4786    0.0000 H   0  0  0  0  0  0  0  0  0  0  0  0
    3.9383    6.6859    0.0000 H   0  0  0  0  0  0  0  0  0  0  0  0
    4.9325    0.8866    0.0000 H   0  0  0  0  0  0  0  0  0  0  0  0
    5.5417    7.4772    0.0000 H   0  0  0  0  0  0  0  0  0  0  0  0
    5.4045    8.3432    0.0000 H   0  0  0  0  0  0  0  0  0  0  0  0
    4.5385    8.2060    0.0000 H   0  0  0  0  0  0  0  0  0  0  0  0
    4.5656   -1.2172    0.0000 H   0  0  0  0  0  0  0  0  0  0  0  0
    4.6489   -0.4245    0.0000 H   0  0  0  0  0  0  0  0  0  0  0  0
    2.9305   -1.5154    0.0000 H   0  0  0  0  0  0  0  0  0  0  0  0
    4.2647   -4.4454    0.0000 H   0  0  0  0  0  0  0  0  0  0  0  0
    1.4631   -6.0316    0.0000 H   0  0  0  0  0  0  0  0  0  0  0  0
    4.2690   -6.0316    0.0000 H   0  0  0  0  0  0  0  0  0  0  0  0
    1.4631   -7.6516    0.0000 H   0  0  0  0  0  0  0  0  0  0  0  0
    4.2690   -7.6516    0.0000 H   0  0  0  0  0  0  0  0  0  0  0  0
    2.8660   -8.4616    0.0000 H   0  0  0  0  0  0  0  0  0  0  0  0
  1  9  1  0  0  0  0
  1 12  1  0  0  0  0
  2  7  1  0  0  0  0
  2 18  1  0  0  0  0
  3 15  2  0  0  0  0
  4 19  2  0  0  0  0
  5 11  1  0  0  0  0
  5 15  1  0  0  0  0
  5 39  1  0  0  0  0
  6 16  1  0  0  0  0
  6 19  1  0  0  0  0
  6 45  1  0  0  0  0
  7 17  2  0  0  0  0
  8  9  1  0  0  0  0
  8 11  1  0  0  0  0
  8 27  1  0  0  0  0
  8 28  1  0  0  0  0
  9 29  1  0  0  0  0
  9 30  1  0  0  0  0
 10 12  1  0  0  0  0
 10 13  1  0  0  0  0
 10 31  1  0  0  0  0
 10 32  1  0  0  0  0
 11 33  1  0  0  0  0
 11 34  1  0  0  0  0
 12 35  1  0  0  0  0
 12 36  1  0  0  0  0
 13 14  1  0  0  0  0
 13 37  1  0  0  0  0
 13 38  1  0  0  0  0
 14 40  1  0  0  0  0
 14 41  1  0  0  0  0
 14 42  1  0  0  0  0
 15 16  1  0  0  0  0
 16 43  1  0  0  0  0
 16 44  1  0  0  0  0
 17 19  1  0  0  0  0
 17 21  1  0  0  0  0
 18 20  1  0  0  0  0
 18 21  2  0  0  0  0
 20 22  2  0  0  0  0
 20 23  1  0  0  0  0
 21 46  1  0  0  0  0
 22 24  1  0  0  0  0
 22 47  1  0  0  0  0
 23 25  2  0  0  0  0
 23 48  1  0  0  0  0
 24 26  2  0  0  0  0
 24 49  1  0  0  0  0
 25 26  1  0  0  0  0
 25 50  1  0  0  0  0
 26 51  1  0  0  0  0
M  END
> <PUBCHEM_COMPOUND_CID>
56292104

> <PUBCHEM_COMPOUND_CANONICALIZED>
1

> <PUBCHEM_CACTVS_COMPLEXITY>
427

> <PUBCHEM_CACTVS_HBOND_ACCEPTOR>
5

> <PUBCHEM_CACTVS_HBOND_DONOR>
2

> <PUBCHEM_CACTVS_ROTATABLE_BOND>
11

> <PUBCHEM_CACTVS_SUBSKEYS>
AAADceB7OAAAAAAAAAAAAAAAAAAAAWAAAAAwAAAAAAAAAAABwAAAHgAUAAAADAzhngYyhJLQBACpA6VyUgCCAAAmIgAomKG+bNoIZjqAlbOWMYhm1hmIyce/yKCOAAAAAAAAAAAAAAAAAAAAAAAAAAAAAA==

> <PUBCHEM_IUPAC_OPENEYE_NAME>
N-[2-(3-butoxypropylamino)-2-oxo-ethyl]-5-phenyl-isoxazole-3-carboxamide

> <PUBCHEM_IUPAC_CAS_NAME>
N-[2-(3-butoxypropylamino)-2-oxoethyl]-5-phenyl-3-isoxazolecarboxamide

> <PUBCHEM_IUPAC_NAME_MARKUP>
<I>N</I>-[2-(3-butoxypropylamino)-2-oxoethyl]-5-phenyl-1,2-oxazole-3-carboxamide

> <PUBCHEM_IUPAC_NAME>
N-[2-(3-butoxypropylamino)-2-oxoethyl]-5-phenyl-1,2-oxazole-3-carboxamide

> <PUBCHEM_IUPAC_SYSTEMATIC_NAME>
N-[2-(3-butoxypropylamino)-2-oxidanylidene-ethyl]-5-phenyl-1,2-oxazole-3-carboxamide

> <PUBCHEM_IUPAC_TRADITIONAL_NAME>
N-[2-(3-butoxypropylamino)-2-keto-ethyl]-5-phenyl-isoxazole-3-carboxamide

> <PUBCHEM_IUPAC_INCHI>
InChI=1S/C19H25N3O4/c1-2-3-11-25-12-7-10-20-18(23)14-21-19(24)16-13-17(26-22-16)15-8-5-4-6-9-15/h4-6,8-9,13H,2-3,7,10-12,14H2,1H3,(H,20,23)(H,21,24)

> <PUBCHEM_IUPAC_INCHIKEY>
RMSBGAXVXOYLGJ-UHFFFAOYSA-N

> <PUBCHEM_XLOGP3_AA>
2.4

> <PUBCHEM_EXACT_MASS>
359.184506

> <PUBCHEM_MOLECULAR_FORMULA>
C19H25N3O4

> <PUBCHEM_MOLECULAR_WEIGHT>
359.4

> <PUBCHEM_OPENEYE_CAN_SMILES>
CCCCOCCCNC(=O)CNC(=O)C1=NOC(=C1)C2=CC=CC=C2

> <PUBCHEM_OPENEYE_ISO_SMILES>
CCCCOCCCNC(=O)CNC(=O)C1=NOC(=C1)C2=CC=CC=C2

> <PUBCHEM_CACTVS_TPSA>
93.5

> <PUBCHEM_MONOISOTOPIC_WEIGHT>
359.184506

> <PUBCHEM_TOTAL_CHARGE>
0

> <PUBCHEM_HEAVY_ATOM_COUNT>
26

> <PUBCHEM_ATOM_DEF_STEREO_COUNT>
0

> <PUBCHEM_ATOM_UDEF_STEREO_COUNT>
0

> <PUBCHEM_BOND_DEF_STEREO_COUNT>
0

> <PUBCHEM_BOND_UDEF_STEREO_COUNT>
0

> <PUBCHEM_ISOTOPIC_ATOM_COUNT>
0

> <PUBCHEM_COMPONENT_COUNT>
1

> <PUBCHEM_CACTVS_TAUTO_COUNT>
-1

> <PUBCHEM_COORDINATE_TYPE>
1
5
255

> <PUBCHEM_BONDANNOTATIONS>
17  21  8
18  21  8
2  18  8
2  7  8
20  22  8
20  23  8
22  24  8
23  25  8
24  26  8
25  26  8
7  17  8

$$$$
56296815
  -OEChem-02212016592D

 49 51  0     1  0  0  0  0  0999 V2000
    4.9970    6.0272    0.0000 O   0  0  0  0  0  0  0  0  0  0  0  0
    2.7336    2.0613    0.0000 O   0  0  0  0  0  0  0  0  0  0  0  0
    2.0570   -2.4394    0.0000 O   0  0  0  0  0  0  0  0  0  0  0  0
    4.9483   -0.7839    0.0000 O   0  0  0  0  0  0  0  0  0  0  0  0
    4.3159    2.7658    0.0000 N   0  0  0  0  0  0  0  0  0  0  0  0
    3.5471    0.2342    0.0000 N   0  0  0  0  0  0  0  0  0  0  0  0
    2.3660   -1.4884    0.0000 N   0  0  0  0  0  0  0  0  0  0  0  0
    4.4970    4.4883    0.0000 C   0  0  3  0  0  0  0  0  0  0  0  0
    5.4970    4.4883    0.0000 C   0  0  0  0  0  0  0  0  0  0  0  0
    3.9092    3.6793    0.0000 C   0  0  0  0  0  0  0  0  0  0  0  0
    4.1879    5.4394    0.0000 C   0  0  0  0  0  0  0  0  0  0  0  0
    5.8060    5.4394    0.0000 C   0  0  0  0  0  0  0  0  0  0  0  0
    5.3104    2.6613    0.0000 C   0  0  0  0  0  0  0  0  0  0  0  0
    3.7281    1.9568    0.0000 C   0  0  0  0  0  0  0  0  0  0  0  0
    5.7172    1.7477    0.0000 C   0  0  0  0  0  0  0  0  0  0  0  0
    4.1349    1.0432    0.0000 C   0  0  0  0  0  0  0  0  0  0  0  0
    3.9538   -0.6793    0.0000 C   0  0  0  0  0  0  0  0  0  0  0  0
    3.3660   -1.4884    0.0000 C   0  0  0  0  0  0  0  0  0  0  0  0
    3.6750   -2.4394    0.0000 C   0  0  0  0  0  0  0  0  0  0  0  0
    2.8660   -3.0272    0.0000 C   0  0  0  0  0  0  0  0  0  0  0  0
    2.8660   -4.0272    0.0000 C   0  0  0  0  0  0  0  0  0  0  0  0
    2.0000   -4.5272    0.0000 C   0  0  0  0  0  0  0  0  0  0  0  0
    3.7320   -4.5272    0.0000 C   0  0  0  0  0  0  0  0  0  0  0  0
    2.0000   -5.5272    0.0000 C   0  0  0  0  0  0  0  0  0  0  0  0
    3.7320   -5.5272    0.0000 C   0  0  0  0  0  0  0  0  0  0  0  0
    2.8660   -6.0272    0.0000 C   0  0  0  0  0  0  0  0  0  0  0  0
    3.8846    4.5853    0.0000 H   0  0  0  0  0  0  0  0  0  0  0  0
    5.4322    3.8718    0.0000 H   0  0  0  0  0  0  0  0  0  0  0  0
    6.1034    4.3594    0.0000 H   0  0  0  0  0  0  0  0  0  0  0  0
    3.4785    4.1253    0.0000 H   0  0  0  0  0  0  0  0  0  0  0  0
    3.3952    3.3326    0.0000 H   0  0  0  0  0  0  0  0  0  0  0  0
    3.8779    5.9763    0.0000 H   0  0  0  0  0  0  0  0  0  0  0  0
    3.6215    5.1872    0.0000 H   0  0  0  0  0  0  0  0  0  0  0  0
    6.3724    5.1872    0.0000 H   0  0  0  0  0  0  0  0  0  0  0  0
    6.1160    5.9763    0.0000 H   0  0  0  0  0  0  0  0  0  0  0  0
    5.9120    2.8112    0.0000 H   0  0  0  0  0  0  0  0  0  0  0  0
    5.2672    3.2798    0.0000 H   0  0  0  0  0  0  0  0  0  0  0  0
    5.1508    1.4955    0.0000 H   0  0  0  0  0  0  0  0  0  0  0  0
    5.9693    1.1813    0.0000 H   0  0  0  0  0  0  0  0  0  0  0  0
    6.2836    1.9999    0.0000 H   0  0  0  0  0  0  0  0  0  0  0  0
    4.5656    0.5972    0.0000 H   0  0  0  0  0  0  0  0  0  0  0  0
    4.6489    1.3899    0.0000 H   0  0  0  0  0  0  0  0  0  0  0  0
    2.9305    0.2990    0.0000 H   0  0  0  0  0  0  0  0  0  0  0  0
    4.2647   -2.6310    0.0000 H   0  0  0  0  0  0  0  0  0  0  0  0
    1.4631   -4.2172    0.0000 H   0  0  0  0  0  0  0  0  0  0  0  0
    4.2690   -4.2172    0.0000 H   0  0  0  0  0  0  0  0  0  0  0  0
    1.4631   -5.8372    0.0000 H   0  0  0  0  0  0  0  0  0  0  0  0
    4.2690   -5.8372    0.0000 H   0  0  0  0  0  0  0  0  0  0  0  0
    2.8660   -6.6472    0.0000 H   0  0  0  0  0  0  0  0  0  0  0  0
  1 11  1  0  0  0  0
  1 12  1  0  0  0  0
  2 14  2  0  0  0  0
  3  7  1  0  0  0  0
  3 20  1  0  0  0  0
  4 17  2  0  0  0  0
  5 10  1  0  0  0  0
  5 13  1  0  0  0  0
  5 14  1  0  0  0  0
  6 16  1  0  0  0  0
  6 17  1  0  0  0  0
  6 43  1  0  0  0  0
  7 18  2  0  0  0  0
  8  9  1  0  0  0  0
  8 10  1  0  0  0  0
  8 11  1  0  0  0  0
  8 27  1  0  0  0  0
  9 12  1  0  0  0  0
  9 28  1  0  0  0  0
  9 29  1  0  0  0  0
 10 30  1  0  0  0  0
 10 31  1  0  0  0  0
 11 32  1  0  0  0  0
 11 33  1  0  0  0  0
 12 34  1  0  0  0  0
 12 35  1  0  0  0  0
 13 15  1  0  0  0  0
 13 36  1  0  0  0  0
 13 37  1  0  0  0  0
 14 16  1  0  0  0  0
 15 38  1  0  0  0  0
 15 39  1  0  0  0  0
 15 40  1  0  0  0  0
 16 41  1  0  0  0  0
 16 42  1  0  0  0  0
 17 18  1  0  0  0  0
 18 19  1  0  0  0  0
 19 20  2  0  0  0  0
 19 44  1  0  0  0  0
 20 21  1  0  0  0  0
 21 22  2  0  0  0  0
 21 23  1  0  0  0  0
 22 24  1  0  0  0  0
 22 45  1  0  0  0  0
 23 25  2  0  0  0  0
 23 46  1  0  0  0  0
 24 26  2  0  0  0  0
 24 47  1  0  0  0  0
 25 26  1  0  0  0  0
 25 48  1  0  0  0  0
 26 49  1  0  0  0  0
M  END
> <PUBCHEM_COMPOUND_CID>
56296815

> <PUBCHEM_COMPOUND_CANONICALIZED>
1

> <PUBCHEM_CACTVS_COMPLEXITY>
481

> <PUBCHEM_CACTVS_HBOND_ACCEPTOR>
5

> <PUBCHEM_CACTVS_HBOND_DONOR>
1

> <PUBCHEM_CACTVS_ROTATABLE_BOND>
7

> <PUBCHEM_CACTVS_SUBSKEYS>
AAADceB7OAAAAAAAAAAAAAAAAAAAAWJAAAAwAAAAAAAAAAABwAAAHgAUAAAADQzhngYyhJPQBACpA6VyUgCCAAAmIgAomKG+bNoIZjqAlbOWMYhmxhmIyce/yKCOAAAAAAAAAAAAAAAAAAAAAAAAAAAAAA==

> <PUBCHEM_IUPAC_OPENEYE_NAME>
N-[2-[ethyl(tetrahydrofuran-3-ylmethyl)amino]-2-oxo-ethyl]-5-phenyl-isoxazole-3-carboxamide

> <PUBCHEM_IUPAC_CAS_NAME>
N-[2-[ethyl(3-oxolanylmethyl)amino]-2-oxoethyl]-5-phenyl-3-isoxazolecarboxamide

> <PUBCHEM_IUPAC_NAME_MARKUP>
<I>N</I>-[2-[ethyl(oxolan-3-ylmethyl)amino]-2-oxoethyl]-5-phenyl-1,2-oxazole-3-carboxamide

> <PUBCHEM_IUPAC_NAME>
N-[2-[ethyl(oxolan-3-ylmethyl)amino]-2-oxoethyl]-5-phenyl-1,2-oxazole-3-carboxamide

> <PUBCHEM_IUPAC_SYSTEMATIC_NAME>
N-[2-[ethyl(oxolan-3-ylmethyl)amino]-2-oxidanylidene-ethyl]-5-phenyl-1,2-oxazole-3-carboxamide

> <PUBCHEM_IUPAC_TRADITIONAL_NAME>
N-[2-[ethyl(tetrahydrofuran-3-ylmethyl)amino]-2-keto-ethyl]-5-phenyl-isoxazole-3-carboxamide

> <PUBCHEM_IUPAC_INCHI>
InChI=1S/C19H23N3O4/c1-2-22(12-14-8-9-25-13-14)18(23)11-20-19(24)16-10-17(26-21-16)15-6-4-3-5-7-15/h3-7,10,14H,2,8-9,11-13H2,1H3,(H,20,24)

> <PUBCHEM_IUPAC_INCHIKEY>
KTMRHNSLXZEEQR-UHFFFAOYSA-N

> <PUBCHEM_XLOGP3_AA>
1.8

> <PUBCHEM_EXACT_MASS>
357.168856

> <PUBCHEM_MOLECULAR_FORMULA>
C19H23N3O4

> <PUBCHEM_MOLECULAR_WEIGHT>
357.4

> <PUBCHEM_OPENEYE_CAN_SMILES>
CCN(CC1CCOC1)C(=O)CNC(=O)C2=NOC(=C2)C3=CC=CC=C3

> <PUBCHEM_OPENEYE_ISO_SMILES>
CCN(CC1CCOC1)C(=O)CNC(=O)C2=NOC(=C2)C3=CC=CC=C3

> <PUBCHEM_CACTVS_TPSA>
84.7

> <PUBCHEM_MONOISOTOPIC_WEIGHT>
357.168856

> <PUBCHEM_TOTAL_CHARGE>
0

> <PUBCHEM_HEAVY_ATOM_COUNT>
26

> <PUBCHEM_ATOM_DEF_STEREO_COUNT>
0

> <PUBCHEM_ATOM_UDEF_STEREO_COUNT>
1

> <PUBCHEM_BOND_DEF_STEREO_COUNT>
0

> <PUBCHEM_BOND_UDEF_STEREO_COUNT>
0

> <PUBCHEM_ISOTOPIC_ATOM_COUNT>
0

> <PUBCHEM_COMPONENT_COUNT>
1

> <PUBCHEM_CACTVS_TAUTO_COUNT>
-1

> <PUBCHEM_COORDINATE_TYPE>
1
5
255

> <PUBCHEM_BONDANNOTATIONS>
18  19  8
19  20  8
21  22  8
21  23  8
22  24  8
23  25  8
24  26  8
25  26  8
3  20  8
3  7  8
7  18  8
8  10  3

$$$$
56394366
  -OEChem-02212016592D

 61 63  0     0  0  0  0  0  0999 V2000
    9.2208    5.9715    0.0000 O   0  0  0  0  0  0  0  0  0  0  0  0
    7.4888    5.9715    0.0000 O   0  0  0  0  0  0  0  0  0  0  0  0
    9.2208    0.9715    0.0000 O   0  0  0  0  0  0  0  0  0  0  0  0
    5.7567   -0.0285    0.0000 O   0  0  0  0  0  0  0  0  0  0  0  0
    3.3080   -3.8649    0.0000 O   0  0  0  0  0  0  0  0  0  0  0  0
    6.6227   -3.5285    0.0000 O   0  0  0  0  0  0  0  0  0  0  0  0
    8.3548    2.4715    0.0000 N   0  0  0  0  0  0  0  0  0  0  0  0
    7.4888   -0.0285    0.0000 N   0  0  0  0  0  0  0  0  0  0  0  0
    5.7567   -2.0285    0.0000 N   0  0  0  0  0  0  0  0  0  0  0  0
    3.9771   -3.1217    0.0000 N   0  0  0  0  0  0  0  0  0  0  0  0
    8.3548    4.4715    0.0000 C   0  0  0  0  0  0  0  0  0  0  0  0
    9.2208    3.9715    0.0000 C   0  0  0  0  0  0  0  0  0  0  0  0
    7.4888    3.9715    0.0000 C   0  0  0  0  0  0  0  0  0  0  0  0
    9.2208    2.9715    0.0000 C   0  0  0  0  0  0  0  0  0  0  0  0
    7.4888    2.9715    0.0000 C   0  0  0  0  0  0  0  0  0  0  0  0
    8.3548    5.4715    0.0000 C   0  0  0  0  0  0  0  0  0  0  0  0
    8.3548    1.4715    0.0000 C   0  0  0  0  0  0  0  0  0  0  0  0
    7.4888    0.9715    0.0000 C   0  0  0  0  0  0  0  0  0  0  0  0
    9.2208    6.9715    0.0000 C   0  0  0  0  0  0  0  0  0  0  0  0
    6.6227   -0.5285    0.0000 C   0  0  0  0  0  0  0  0  0  0  0  0
    8.3548   -0.5285    0.0000 C   0  0  0  0  0  0  0  0  0  0  0  0
    6.6227   -1.5285    0.0000 C   0  0  0  0  0  0  0  0  0  0  0  0
   10.0868    7.4715    0.0000 C   0  0  0  0  0  0  0  0  0  0  0  0
    5.7567   -3.0285    0.0000 C   0  0  0  0  0  0  0  0  0  0  0  0
    4.8907   -3.5285    0.0000 C   0  0  0  0  0  0  0  0  0  0  0  0
    4.7861   -4.5230    0.0000 C   0  0  0  0  0  0  0  0  0  0  0  0
    3.8080   -4.7309    0.0000 C   0  0  0  0  0  0  0  0  0  0  0  0
    3.4013   -5.6444    0.0000 C   0  0  0  0  0  0  0  0  0  0  0  0
    2.4067   -5.7490    0.0000 C   0  0  0  0  0  0  0  0  0  0  0  0
    3.9890   -6.4535    0.0000 C   0  0  0  0  0  0  0  0  0  0  0  0
    2.0000   -6.6625    0.0000 C   0  0  0  0  0  0  0  0  0  0  0  0
    3.5823   -7.3670    0.0000 C   0  0  0  0  0  0  0  0  0  0  0  0
    2.5878   -7.4715    0.0000 C   0  0  0  0  0  0  0  0  0  0  0  0
    7.8178    4.7815    0.0000 H   0  0  0  0  0  0  0  0  0  0  0  0
    9.8314    3.8639    0.0000 H   0  0  0  0  0  0  0  0  0  0  0  0
    9.4328    4.5541    0.0000 H   0  0  0  0  0  0  0  0  0  0  0  0
    7.2767    4.5541    0.0000 H   0  0  0  0  0  0  0  0  0  0  0  0
    6.8782    3.8639    0.0000 H   0  0  0  0  0  0  0  0  0  0  0  0
    9.4328    2.3889    0.0000 H   0  0  0  0  0  0  0  0  0  0  0  0
    9.8314    3.0792    0.0000 H   0  0  0  0  0  0  0  0  0  0  0  0
    6.8782    3.0792    0.0000 H   0  0  0  0  0  0  0  0  0  0  0  0
    7.2767    2.3889    0.0000 H   0  0  0  0  0  0  0  0  0  0  0  0
    7.2767    1.5541    0.0000 H   0  0  0  0  0  0  0  0  0  0  0  0
    6.8782    0.8639    0.0000 H   0  0  0  0  0  0  0  0  0  0  0  0
    9.0087    7.5541    0.0000 H   0  0  0  0  0  0  0  0  0  0  0  0
    8.6102    6.8639    0.0000 H   0  0  0  0  0  0  0  0  0  0  0  0
    8.0448   -1.0654    0.0000 H   0  0  0  0  0  0  0  0  0  0  0  0
    8.8917   -0.8385    0.0000 H   0  0  0  0  0  0  0  0  0  0  0  0
    8.6648    0.0085    0.0000 H   0  0  0  0  0  0  0  0  0  0  0  0
    6.8348   -2.1111    0.0000 H   0  0  0  0  0  0  0  0  0  0  0  0
    7.2333   -1.4208    0.0000 H   0  0  0  0  0  0  0  0  0  0  0  0
   10.3968    6.9346    0.0000 H   0  0  0  0  0  0  0  0  0  0  0  0
   10.6238    7.7815    0.0000 H   0  0  0  0  0  0  0  0  0  0  0  0
    9.7768    8.0085    0.0000 H   0  0  0  0  0  0  0  0  0  0  0  0
    5.2198   -1.7185    0.0000 H   0  0  0  0  0  0  0  0  0  0  0  0
    5.2469   -4.9378    0.0000 H   0  0  0  0  0  0  0  0  0  0  0  0
    2.0423   -5.2474    0.0000 H   0  0  0  0  0  0  0  0  0  0  0  0
    4.6056   -6.3886    0.0000 H   0  0  0  0  0  0  0  0  0  0  0  0
    1.3834   -6.7273    0.0000 H   0  0  0  0  0  0  0  0  0  0  0  0
    3.9467   -7.8686    0.0000 H   0  0  0  0  0  0  0  0  0  0  0  0
    2.3356   -8.0379    0.0000 H   0  0  0  0  0  0  0  0  0  0  0  0
  1 16  1  0  0  0  0
  1 19  1  0  0  0  0
  2 16  2  0  0  0  0
  3 17  2  0  0  0  0
  4 20  2  0  0  0  0
  5 10  1  0  0  0  0
  5 27  1  0  0  0  0
  6 24  2  0  0  0  0
  7 14  1  0  0  0  0
  7 15  1  0  0  0  0
  7 17  1  0  0  0  0
  8 18  1  0  0  0  0
  8 20  1  0  0  0  0
  8 21  1  0  0  0  0
  9 22  1  0  0  0  0
  9 24  1  0  0  0  0
  9 55  1  0  0  0  0
 10 25  2  0  0  0  0
 11 12  1  0  0  0  0
 11 13  1  0  0  0  0
 11 16  1  0  0  0  0
 11 34  1  0  0  0  0
 12 14  1  0  0  0  0
 12 35  1  0  0  0  0
 12 36  1  0  0  0  0
 13 15  1  0  0  0  0
 13 37  1  0  0  0  0
 13 38  1  0  0  0  0
 14 39  1  0  0  0  0
 14 40  1  0  0  0  0
 15 41  1  0  0  0  0
 15 42  1  0  0  0  0
 17 18  1  0  0  0  0
 18 43  1  0  0  0  0
 18 44  1  0  0  0  0
 19 23  1  0  0  0  0
 19 45  1  0  0  0  0
 19 46  1  0  0  0  0
 20 22  1  0  0  0  0
 21 47  1  0  0  0  0
 21 48  1  0  0  0  0
 21 49  1  0  0  0  0
 22 50  1  0  0  0  0
 22 51  1  0  0  0  0
 23 52  1  0  0  0  0
 23 53  1  0  0  0  0
 23 54  1  0  0  0  0
 24 25  1  0  0  0  0
 25 26  1  0  0  0  0
 26 27  2  0  0  0  0
 26 56  1  0  0  0  0
 27 28  1  0  0  0  0
 28 29  2  0  0  0  0
 28 30  1  0  0  0  0
 29 31  1  0  0  0  0
 29 57  1  0  0  0  0
 30 32  2  0  0  0  0
 30 58  1  0  0  0  0
 31 33  2  0  0  0  0
 31 59  1  0  0  0  0
 32 33  1  0  0  0  0
 32 60  1  0  0  0  0
 33 61  1  0  0  0  0
M  END
> <PUBCHEM_COMPOUND_CID>
56394366

> <PUBCHEM_COMPOUND_CANONICALIZED>
1

> <PUBCHEM_CACTVS_COMPLEXITY>
703

> <PUBCHEM_CACTVS_HBOND_ACCEPTOR>
7

> <PUBCHEM_CACTVS_HBOND_DONOR>
1

> <PUBCHEM_CACTVS_ROTATABLE_BOND>
9

> <PUBCHEM_CACTVS_SUBSKEYS>
AAADceB7uAAAAAAAAAAAAAAAAAAAAWAAAAA8QAAAAAAAAAABwAAAHgAUAAAADQzhngYyjJPQBACpA6XyWgCCAAAmIgAomKG+bNoIZjqAlbOWMYhmxhmIyce/yKCOAAAAAAAAAAAAAAAAAAAAAAAAAAAAAA==

> <PUBCHEM_IUPAC_OPENEYE_NAME>
ethyl 1-[2-[methyl-[2-[(5-phenylisoxazole-3-carbonyl)amino]acetyl]amino]acetyl]piperidine-4-carboxylate

> <PUBCHEM_IUPAC_CAS_NAME>
1-[2-[methyl-[1-oxo-2-[[oxo-(5-phenyl-3-isoxazolyl)methyl]amino]ethyl]amino]-1-oxoethyl]-4-piperidinecarboxylic acid ethyl ester

> <PUBCHEM_IUPAC_NAME_MARKUP>
ethyl 1-[2-[methyl-[2-[(5-phenyl-1,2-oxazole-3-carbonyl)amino]acetyl]amino]acetyl]piperidine-4-carboxylate

> <PUBCHEM_IUPAC_NAME>
ethyl 1-[2-[methyl-[2-[(5-phenyl-1,2-oxazole-3-carbonyl)amino]acetyl]amino]acetyl]piperidine-4-carboxylate

> <PUBCHEM_IUPAC_SYSTEMATIC_NAME>
ethyl 1-[2-[methyl-[2-[(5-phenyl-1,2-oxazol-3-yl)carbonylamino]ethanoyl]amino]ethanoyl]piperidine-4-carboxylate

> <PUBCHEM_IUPAC_TRADITIONAL_NAME>
1-[2-[methyl-[2-[(5-phenylisoxazole-3-carbonyl)amino]acetyl]amino]acetyl]isonipecotic acid ethyl ester

> <PUBCHEM_IUPAC_INCHI>
InChI=1S/C23H28N4O6/c1-3-32-23(31)17-9-11-27(12-10-17)21(29)15-26(2)20(28)14-24-22(30)18-13-19(33-25-18)16-7-5-4-6-8-16/h4-8,13,17H,3,9-12,14-15H2,1-2H3,(H,24,30)

> <PUBCHEM_IUPAC_INCHIKEY>
OBDZMCUFULUSKT-UHFFFAOYSA-N

> <PUBCHEM_XLOGP3_AA>
1.4

> <PUBCHEM_EXACT_MASS>
456.200885

> <PUBCHEM_MOLECULAR_FORMULA>
C23H28N4O6

> <PUBCHEM_MOLECULAR_WEIGHT>
456.5

> <PUBCHEM_OPENEYE_CAN_SMILES>
CCOC(=O)C1CCN(CC1)C(=O)CN(C)C(=O)CNC(=O)C2=NOC(=C2)C3=CC=CC=C3

> <PUBCHEM_OPENEYE_ISO_SMILES>
CCOC(=O)C1CCN(CC1)C(=O)CN(C)C(=O)CNC(=O)C2=NOC(=C2)C3=CC=CC=C3

> <PUBCHEM_CACTVS_TPSA>
122

> <PUBCHEM_MONOISOTOPIC_WEIGHT>
456.200885

> <PUBCHEM_TOTAL_CHARGE>
0

> <PUBCHEM_HEAVY_ATOM_COUNT>
33

> <PUBCHEM_ATOM_DEF_STEREO_COUNT>
0

> <PUBCHEM_ATOM_UDEF_STEREO_COUNT>
0

> <PUBCHEM_BOND_DEF_STEREO_COUNT>
0

> <PUBCHEM_BOND_UDEF_STEREO_COUNT>
0

> <PUBCHEM_ISOTOPIC_ATOM_COUNT>
0

> <PUBCHEM_COMPONENT_COUNT>
1

> <PUBCHEM_CACTVS_TAUTO_COUNT>
-1

> <PUBCHEM_COORDINATE_TYPE>
1
5
255

> <PUBCHEM_BONDANNOTATIONS>
10  25  8
25  26  8
26  27  8
28  29  8
28  30  8
29  31  8
30  32  8
31  33  8
32  33  8
5  10  8
5  27  8

$$$$
58593544
  -OEChem-02212016592D

 74 76  0     1  0  0  0  0  0999 V2000
    4.5981   -5.2702    0.0000 F   0  0  0  0  0  0  0  0  0  0  0  0
    7.2242    3.5086    0.0000 O   0  0  0  0  0  0  0  0  0  0  0  0
    6.3301   -1.2702    0.0000 O   0  0  0  0  0  0  0  0  0  0  0  0
    6.3301    0.7298    0.0000 O   0  0  0  0  0  0  0  0  0  0  0  0
    7.1962    0.2298    0.0000 O   0  0  0  0  0  0  0  0  0  0  0  0
    9.7942   -2.2702    0.0000 O   0  0  0  0  0  0  0  0  0  0  0  0
   11.7429    0.4322    0.0000 O   0  0  0  0  0  0  0  0  0  0  0  0
    5.9641    4.7686    0.0000 N   0  0  0  0  0  0  0  0  0  0  0  0
    4.5981    0.7298    0.0000 N   0  0  0  0  0  0  0  0  0  0  0  0
    8.9282   -0.7702    0.0000 N   0  0  0  0  0  0  0  0  0  0  0  0
   10.7648    0.2243    0.0000 N   0  0  0  0  0  0  0  0  0  0  0  0
    5.4641    3.2298    0.0000 C   0  0  2  0  0  0  0  0  0  0  0  0
    5.4641    2.2298    0.0000 C   0  0  0  0  0  0  0  0  0  0  0  0
    4.6551    3.8176    0.0000 C   0  0  0  0  0  0  0  0  0  0  0  0
    4.5981    1.7298    0.0000 C   0  0  1  0  0  0  0  0  0  0  0  0
    4.9641    4.7686    0.0000 C   0  0  0  0  0  0  0  0  0  0  0  0
    6.2731    3.8176    0.0000 C   0  0  0  0  0  0  0  0  0  0  0  0
    3.7320    2.2298    0.0000 C   0  0  0  0  0  0  0  0  0  0  0  0
    5.4641   -0.7702    0.0000 C   0  0  2  0  0  0  0  0  0  0  0  0
    5.4641    0.2298    0.0000 C   0  0  0  0  0  0  0  0  0  0  0  0
    8.0622   -1.2702    0.0000 C   0  0  1  0  0  0  0  0  0  0  0  0
    8.0622   -2.2702    0.0000 C   0  0  0  0  0  0  0  0  0  0  0  0
    4.5981   -1.2702    0.0000 C   0  0  0  0  0  0  0  0  0  0  0  0
    2.8660    1.7298    0.0000 C   0  0  0  0  0  0  0  0  0  0  0  0
    7.1962   -0.7702    0.0000 C   0  0  0  0  0  0  0  0  0  0  0  0
    4.5981   -2.2702    0.0000 C   0  0  0  0  0  0  0  0  0  0  0  0
    8.9282   -2.7702    0.0000 C   0  0  0  0  0  0  0  0  0  0  0  0
    7.1962   -2.7702    0.0000 C   0  0  0  0  0  0  0  0  0  0  0  0
    2.0000    2.2298    0.0000 C   0  0  0  0  0  0  0  0  0  0  0  0
    5.4641   -2.7702    0.0000 C   0  0  0  0  0  0  0  0  0  0  0  0
    3.7320   -2.7702    0.0000 C   0  0  0  0  0  0  0  0  0  0  0  0
    9.7942   -1.2702    0.0000 C   0  0  0  0  0  0  0  0  0  0  0  0
    5.4641   -3.7702    0.0000 C   0  0  0  0  0  0  0  0  0  0  0  0
    3.7320   -3.7702    0.0000 C   0  0  0  0  0  0  0  0  0  0  0  0
   10.6603   -0.7702    0.0000 C   0  0  0  0  0  0  0  0  0  0  0  0
    4.5981   -4.2702    0.0000 C   0  0  0  0  0  0  0  0  0  0  0  0
   11.5738   -1.1770    0.0000 C   0  0  0  0  0  0  0  0  0  0  0  0
   12.2429   -0.4338    0.0000 C   0  0  0  0  0  0  0  0  0  0  0  0
   13.2375   -0.5383    0.0000 C   0  0  0  0  0  0  0  0  0  0  0  0
    6.0165    2.9483    0.0000 H   0  0  0  0  0  0  0  0  0  0  0  0
    5.6762    1.6472    0.0000 H   0  0  0  0  0  0  0  0  0  0  0  0
    6.0747    2.3374    0.0000 H   0  0  0  0  0  0  0  0  0  0  0  0
    4.0887    4.0698    0.0000 H   0  0  0  0  0  0  0  0  0  0  0  0
    4.3451    3.2806    0.0000 H   0  0  0  0  0  0  0  0  0  0  0  0
    5.1350    1.4198    0.0000 H   0  0  0  0  0  0  0  0  0  0  0  0
    5.0289    5.3852    0.0000 H   0  0  0  0  0  0  0  0  0  0  0  0
    4.3576    4.8975    0.0000 H   0  0  0  0  0  0  0  0  0  0  0  0
    6.3285    5.2702    0.0000 H   0  0  0  0  0  0  0  0  0  0  0  0
    4.0611    0.4198    0.0000 H   0  0  0  0  0  0  0  0  0  0  0  0
    3.7320    2.8498    0.0000 H   0  0  0  0  0  0  0  0  0  0  0  0
    5.4641   -1.3902    0.0000 H   0  0  0  0  0  0  0  0  0  0  0  0
    8.0622   -0.6502    0.0000 H   0  0  0  0  0  0  0  0  0  0  0  0
    8.0622   -2.8902    0.0000 H   0  0  0  0  0  0  0  0  0  0  0  0
    4.3860   -0.6876    0.0000 H   0  0  0  0  0  0  0  0  0  0  0  0
    3.9875   -1.3779    0.0000 H   0  0  0  0  0  0  0  0  0  0  0  0
    2.8660    1.1098    0.0000 H   0  0  0  0  0  0  0  0  0  0  0  0
    8.6182   -3.3072    0.0000 H   0  0  0  0  0  0  0  0  0  0  0  0
    9.4651   -3.0802    0.0000 H   0  0  0  0  0  0  0  0  0  0  0  0
    9.2382   -2.2333    0.0000 H   0  0  0  0  0  0  0  0  0  0  0  0
    6.8862   -2.2333    0.0000 H   0  0  0  0  0  0  0  0  0  0  0  0
    6.6592   -3.0802    0.0000 H   0  0  0  0  0  0  0  0  0  0  0  0
    7.5062   -3.3072    0.0000 H   0  0  0  0  0  0  0  0  0  0  0  0
    8.9282   -0.1502    0.0000 H   0  0  0  0  0  0  0  0  0  0  0  0
    2.3100    2.7667    0.0000 H   0  0  0  0  0  0  0  0  0  0  0  0
    1.4631    2.5398    0.0000 H   0  0  0  0  0  0  0  0  0  0  0  0
    1.6900    1.6928    0.0000 H   0  0  0  0  0  0  0  0  0  0  0  0
    6.0010   -2.4602    0.0000 H   0  0  0  0  0  0  0  0  0  0  0  0
    3.1951   -2.4602    0.0000 H   0  0  0  0  0  0  0  0  0  0  0  0
    6.0010   -4.0802    0.0000 H   0  0  0  0  0  0  0  0  0  0  0  0
    3.1951   -4.0802    0.0000 H   0  0  0  0  0  0  0  0  0  0  0  0
   11.7027   -1.7834    0.0000 H   0  0  0  0  0  0  0  0  0  0  0  0
   13.1726   -1.1549    0.0000 H   0  0  0  0  0  0  0  0  0  0  0  0
   13.8541   -0.6031    0.0000 H   0  0  0  0  0  0  0  0  0  0  0  0
   13.3023    0.0783    0.0000 H   0  0  0  0  0  0  0  0  0  0  0  0
  1 36  1  0  0  0  0
  2 17  2  0  0  0  0
 19  3  1  1  0  0  0
  3 25  1  0  0  0  0
  4 20  2  0  0  0  0
  5 25  2  0  0  0  0
  6 32  2  0  0  0  0
  7 11  1  0  0  0  0
  7 38  1  0  0  0  0
  8 16  1  0  0  0  0
  8 17  1  0  0  0  0
  8 48  1  0  0  0  0
 15  9  1  6  0  0  0
  9 20  1  0  0  0  0
  9 49  1  0  0  0  0
 21 10  1  1  0  0  0
 10 32  1  0  0  0  0
 10 63  1  0  0  0  0
 11 35  2  0  0  0  0
 12 13  1  6  0  0  0
 12 14  1  0  0  0  0
 12 17  1  0  0  0  0
 12 40  1  0  0  0  0
 13 15  1  0  0  0  0
 13 41  1  0  0  0  0
 13 42  1  0  0  0  0
 14 16  1  0  0  0  0
 14 43  1  0  0  0  0
 14 44  1  0  0  0  0
 15 18  1  0  0  0  0
 15 45  1  0  0  0  0
 16 46  1  0  0  0  0
 16 47  1  0  0  0  0
 18 24  2  0  0  0  0
 18 50  1  0  0  0  0
 19 20  1  0  0  0  0
 19 23  1  0  0  0  0
 19 51  1  0  0  0  0
 21 22  1  0  0  0  0
 21 25  1  0  0  0  0
 21 52  1  0  0  0  0
 22 27  1  0  0  0  0
 22 28  1  0  0  0  0
 22 53  1  0  0  0  0
 23 26  1  0  0  0  0
 23 54  1  0  0  0  0
 23 55  1  0  0  0  0
 24 29  1  0  0  0  0
 24 56  1  0  0  0  0
 26 30  2  0  0  0  0
 26 31  1  0  0  0  0
 27 57  1  0  0  0  0
 27 58  1  0  0  0  0
 27 59  1  0  0  0  0
 28 60  1  0  0  0  0
 28 61  1  0  0  0  0
 28 62  1  0  0  0  0
 29 64  1  0  0  0  0
 29 65  1  0  0  0  0
 29 66  1  0  0  0  0
 30 33  1  0  0  0  0
 30 67  1  0  0  0  0
 31 34  2  0  0  0  0
 31 68  1  0  0  0  0
 32 35  1  0  0  0  0
 33 36  2  0  0  0  0
 33 69  1  0  0  0  0
 34 36  1  0  0  0  0
 34 70  1  0  0  0  0
 35 37  1  0  0  0  0
 37 38  2  0  0  0  0
 37 71  1  0  0  0  0
 38 39  1  0  0  0  0
 39 72  1  0  0  0  0
 39 73  1  0  0  0  0
 39 74  1  0  0  0  0
M  END
> <PUBCHEM_COMPOUND_CID>
58593544

> <PUBCHEM_COMPOUND_CANONICALIZED>
1

> <PUBCHEM_CACTVS_COMPLEXITY>
891

> <PUBCHEM_CACTVS_HBOND_ACCEPTOR>
8

> <PUBCHEM_CACTVS_HBOND_DONOR>
3

> <PUBCHEM_CACTVS_ROTATABLE_BOND>
13

> <PUBCHEM_CACTVS_SUBSKEYS>
AAADcfB7uQAAAAAAAAAAAAAAAAAAAWLAAAAwAAAAAAAAAAABwAAAHwAUAAAADTzhng4yjJLQBACpA6XyWgKCAAAmIgAomKH+bNoKZjqAlbeXMYhm1hmYyce/yKCOAAAAAAAAAAAAAAAAAAAAAAAAAAAAAA==

> <PUBCHEM_IUPAC_OPENEYE_NAME>
[(1S)-1-[(4-fluorophenyl)methyl]-2-oxo-2-[[(E,1S)-1-[[(3S)-2-oxopyrrolidin-3-yl]methyl]but-2-enyl]amino]ethyl] (2S)-3-methyl-2-[(5-methylisoxazole-3-carbonyl)amino]butanoate

> <PUBCHEM_IUPAC_CAS_NAME>
(2S)-3-methyl-2-[[(5-methyl-3-isoxazolyl)-oxomethyl]amino]butanoic acid [(2S)-3-(4-fluorophenyl)-1-oxo-1-[[(E,2S)-1-[(3S)-2-oxo-3-pyrrolidinyl]pent-3-en-2-yl]amino]propan-2-yl] ester

> <PUBCHEM_IUPAC_NAME_MARKUP>
[(2<I>S</I>)-3-(4-fluorophenyl)-1-oxo-1-[[(<I>E</I>,2<I>S</I>)-1-[(3<I>S</I>)-2-oxopyrrolidin-3-yl]pent-3-en-2-yl]amino]propan-2-yl] (2<I>S</I>)-3-methyl-2-[(5-methyl-1,2-oxazole-3-carbonyl)amino]butanoate

> <PUBCHEM_IUPAC_NAME>
[(2S)-3-(4-fluorophenyl)-1-oxo-1-[[(E,2S)-1-[(3S)-2-oxopyrrolidin-3-yl]pent-3-en-2-yl]amino]propan-2-yl] (2S)-3-methyl-2-[(5-methyl-1,2-oxazole-3-carbonyl)amino]butanoate

> <PUBCHEM_IUPAC_SYSTEMATIC_NAME>
[(2S)-3-(4-fluorophenyl)-1-oxidanylidene-1-[[(E,2S)-1-[(3S)-2-oxidanylidenepyrrolidin-3-yl]pent-3-en-2-yl]amino]propan-2-yl] (2S)-3-methyl-2-[(5-methyl-1,2-oxazol-3-yl)carbonylamino]butanoate

> <PUBCHEM_IUPAC_TRADITIONAL_NAME>
(2S)-3-methyl-2-[(5-methylisoxazole-3-carbonyl)amino]butyric acid [(1S)-1-(4-fluorobenzyl)-2-keto-2-[[(E,1S)-1-[[(3S)-2-ketopyrrolidin-3-yl]methyl]but-2-enyl]amino]ethyl] ester

> <PUBCHEM_IUPAC_INCHI>
InChI=1S/C28H35FN4O6/c1-5-6-21(15-19-11-12-30-25(19)34)31-27(36)23(14-18-7-9-20(29)10-8-18)38-28(37)24(16(2)3)32-26(35)22-13-17(4)39-33-22/h5-10,13,16,19,21,23-24H,11-12,14-15H2,1-4H3,(H,30,34)(H,31,36)(H,32,35)/b6-5+/t19-,21+,23-,24-/m0/s1

> <PUBCHEM_IUPAC_INCHIKEY>
UDOLSCZJDUOCTM-QWYGZAHKSA-N

> <PUBCHEM_XLOGP3_AA>
3.8

> <PUBCHEM_EXACT_MASS>
542.254063

> <PUBCHEM_MOLECULAR_FORMULA>
C28H35FN4O6

> <PUBCHEM_MOLECULAR_WEIGHT>
542.6

> <PUBCHEM_OPENEYE_CAN_SMILES>
CC=CC(CC1CCNC1=O)NC(=O)C(CC2=CC=C(C=C2)F)OC(=O)C(C(C)C)NC(=O)C3=NOC(=C3)C

> <PUBCHEM_OPENEYE_ISO_SMILES>
C/C=C/[C@H](C[C@@H]1CCNC1=O)NC(=O)[C@H](CC2=CC=C(C=C2)F)OC(=O)[C@H](C(C)C)NC(=O)C3=NOC(=C3)C

> <PUBCHEM_CACTVS_TPSA>
140

> <PUBCHEM_MONOISOTOPIC_WEIGHT>
542.254063

> <PUBCHEM_TOTAL_CHARGE>
0

> <PUBCHEM_HEAVY_ATOM_COUNT>
39

> <PUBCHEM_ATOM_DEF_STEREO_COUNT>
4

> <PUBCHEM_ATOM_UDEF_STEREO_COUNT>
0

> <PUBCHEM_BOND_DEF_STEREO_COUNT>
1

> <PUBCHEM_BOND_UDEF_STEREO_COUNT>
0

> <PUBCHEM_ISOTOPIC_ATOM_COUNT>
0

> <PUBCHEM_COMPONENT_COUNT>
1

> <PUBCHEM_CACTVS_TAUTO_COUNT>
-1

> <PUBCHEM_COORDINATE_TYPE>
1
5
255

> <PUBCHEM_BONDANNOTATIONS>
21  10  5
11  35  8
12  13  6
26  30  8
26  31  8
19  3  5
30  33  8
31  34  8
33  36  8
34  36  8
35  37  8
37  38  8
7  11  8
7  38  8
15  9  6

$$$$
59016365
  -OEChem-02212016592D

 81 83  0     1  0  0  0  0  0999 V2000
    5.3147   -5.5580    0.0000 F   0  0  0  0  0  0  0  0  0  0  0  0
    9.0062   -4.7216    0.0000 O   0  0  0  0  0  0  0  0  0  0  0  0
    7.0468   -2.5580    0.0000 O   0  0  0  0  0  0  0  0  0  0  0  0
    4.4487   -0.0580    0.0000 O   0  0  0  0  0  0  0  0  0  0  0  0
   11.3769   -0.0580    0.0000 O   0  0  0  0  0  0  0  0  0  0  0  0
   10.5109    1.4420    0.0000 O   0  0  0  0  0  0  0  0  0  0  0  0
    5.3147    3.4420    0.0000 O   0  0  0  0  0  0  0  0  0  0  0  0
    2.0000    3.7784    0.0000 O   0  0  0  0  0  0  0  0  0  0  0  0
   10.7275   -4.2604    0.0000 N   0  0  0  0  0  0  0  0  0  0  0  0
    7.9128   -1.0580    0.0000 N   0  0  0  0  0  0  0  0  0  0  0  0
    6.1808   -0.0580    0.0000 N   0  0  0  0  0  0  0  0  0  0  0  0
    4.4487    1.9420    0.0000 N   0  0  0  0  0  0  0  0  0  0  0  0
    2.6691    3.0353    0.0000 N   0  0  0  0  0  0  0  0  0  0  0  0
    9.6448   -3.0580    0.0000 C   0  0  3  0  0  0  0  0  0  0  0  0
    8.7788   -2.5580    0.0000 C   0  0  0  0  0  0  0  0  0  0  0  0
   10.5584   -2.6512    0.0000 C   0  0  0  0  0  0  0  0  0  0  0  0
    8.7788   -1.5580    0.0000 C   0  0  1  0  0  0  0  0  0  0  0  0
   11.2275   -3.3944    0.0000 C   0  0  0  0  0  0  0  0  0  0  0  0
    9.7494   -4.0525    0.0000 C   0  0  0  0  0  0  0  0  0  0  0  0
    6.1808   -1.0580    0.0000 C   0  0  2  0  0  0  0  0  0  0  0  0
    9.6448   -1.0580    0.0000 C   0  0  0  0  0  0  0  0  0  0  0  0
    7.0468   -1.5580    0.0000 C   0  0  0  0  0  0  0  0  0  0  0  0
    5.3147    1.4420    0.0000 C   0  0  1  0  0  0  0  0  0  0  0  0
    5.3147   -1.5580    0.0000 C   0  0  0  0  0  0  0  0  0  0  0  0
    6.1808    1.9420    0.0000 C   0  0  0  0  0  0  0  0  0  0  0  0
    5.3147    0.4420    0.0000 C   0  0  0  0  0  0  0  0  0  0  0  0
    9.6448   -0.0580    0.0000 C   0  0  0  0  0  0  0  0  0  0  0  0
    5.3147   -2.5580    0.0000 C   0  0  0  0  0  0  0  0  0  0  0  0
    6.1808    2.9420    0.0000 C   0  0  0  0  0  0  0  0  0  0  0  0
    7.0468    1.4420    0.0000 C   0  0  0  0  0  0  0  0  0  0  0  0
    6.1808   -3.0580    0.0000 C   0  0  0  0  0  0  0  0  0  0  0  0
    4.4487   -3.0580    0.0000 C   0  0  0  0  0  0  0  0  0  0  0  0
   10.5109    0.4420    0.0000 C   0  0  0  0  0  0  0  0  0  0  0  0
    4.4487    2.9420    0.0000 C   0  0  0  0  0  0  0  0  0  0  0  0
    6.1808   -4.0580    0.0000 C   0  0  0  0  0  0  0  0  0  0  0  0
    4.4487   -4.0580    0.0000 C   0  0  0  0  0  0  0  0  0  0  0  0
    3.5827    3.4420    0.0000 C   0  0  0  0  0  0  0  0  0  0  0  0
    5.3147   -4.5580    0.0000 C   0  0  0  0  0  0  0  0  0  0  0  0
    3.4782    4.4365    0.0000 C   0  0  0  0  0  0  0  0  0  0  0  0
   12.2429    0.4420    0.0000 C   0  0  0  0  0  0  0  0  0  0  0  0
    2.5000    4.6444    0.0000 C   0  0  0  0  0  0  0  0  0  0  0  0
   13.1090   -0.0580    0.0000 C   0  0  0  0  0  0  0  0  0  0  0  0
    2.0933    5.5580    0.0000 C   0  0  0  0  0  0  0  0  0  0  0  0
    9.1249   -3.3957    0.0000 H   0  0  0  0  0  0  0  0  0  0  0  0
    8.1682   -2.4503    0.0000 H   0  0  0  0  0  0  0  0  0  0  0  0
    8.5668   -3.1406    0.0000 H   0  0  0  0  0  0  0  0  0  0  0  0
   11.0600   -2.2868    0.0000 H   0  0  0  0  0  0  0  0  0  0  0  0
   10.2484   -2.1143    0.0000 H   0  0  0  0  0  0  0  0  0  0  0  0
    8.2419   -1.8680    0.0000 H   0  0  0  0  0  0  0  0  0  0  0  0
   11.7291   -3.7588    0.0000 H   0  0  0  0  0  0  0  0  0  0  0  0
   11.6424   -2.9336    0.0000 H   0  0  0  0  0  0  0  0  0  0  0  0
   10.9797   -4.8268    0.0000 H   0  0  0  0  0  0  0  0  0  0  0  0
    7.9128   -0.4380    0.0000 H   0  0  0  0  0  0  0  0  0  0  0  0
    6.7177   -0.7480    0.0000 H   0  0  0  0  0  0  0  0  0  0  0  0
   10.1818   -1.3680    0.0000 H   0  0  0  0  0  0  0  0  0  0  0  0
    5.3147    2.0620    0.0000 H   0  0  0  0  0  0  0  0  0  0  0  0
    5.1027   -0.9754    0.0000 H   0  0  0  0  0  0  0  0  0  0  0  0
    4.7042   -1.6656    0.0000 H   0  0  0  0  0  0  0  0  0  0  0  0
    6.1808    1.3220    0.0000 H   0  0  0  0  0  0  0  0  0  0  0  0
    6.7177    0.2520    0.0000 H   0  0  0  0  0  0  0  0  0  0  0  0
    9.1079    0.2520    0.0000 H   0  0  0  0  0  0  0  0  0  0  0  0
    6.8008    2.9420    0.0000 H   0  0  0  0  0  0  0  0  0  0  0  0
    6.1808    3.5620    0.0000 H   0  0  0  0  0  0  0  0  0  0  0  0
    5.5608    2.9420    0.0000 H   0  0  0  0  0  0  0  0  0  0  0  0
    6.7368    0.9051    0.0000 H   0  0  0  0  0  0  0  0  0  0  0  0
    7.5837    1.1320    0.0000 H   0  0  0  0  0  0  0  0  0  0  0  0
    7.3568    1.9790    0.0000 H   0  0  0  0  0  0  0  0  0  0  0  0
    3.9118    1.6320    0.0000 H   0  0  0  0  0  0  0  0  0  0  0  0
    6.7177   -2.7480    0.0000 H   0  0  0  0  0  0  0  0  0  0  0  0
    3.9118   -2.7480    0.0000 H   0  0  0  0  0  0  0  0  0  0  0  0
    6.7177   -4.3680    0.0000 H   0  0  0  0  0  0  0  0  0  0  0  0
    3.9118   -4.3680    0.0000 H   0  0  0  0  0  0  0  0  0  0  0  0
    3.9389    4.8514    0.0000 H   0  0  0  0  0  0  0  0  0  0  0  0
   12.6415    0.9170    0.0000 H   0  0  0  0  0  0  0  0  0  0  0  0
   11.8444    0.9170    0.0000 H   0  0  0  0  0  0  0  0  0  0  0  0
   12.7990   -0.5949    0.0000 H   0  0  0  0  0  0  0  0  0  0  0  0
   13.6459   -0.3680    0.0000 H   0  0  0  0  0  0  0  0  0  0  0  0
   13.4190    0.4789    0.0000 H   0  0  0  0  0  0  0  0  0  0  0  0
    2.6597    5.8102    0.0000 H   0  0  0  0  0  0  0  0  0  0  0  0
    1.8411    6.1244    0.0000 H   0  0  0  0  0  0  0  0  0  0  0  0
    1.5269    5.3058    0.0000 H   0  0  0  0  0  0  0  0  0  0  0  0
  1 38  1  0  0  0  0
  2 19  2  0  0  0  0
  3 22  2  0  0  0  0
  4 26  2  0  0  0  0
  5 33  1  0  0  0  0
  5 40  1  0  0  0  0
  6 33  2  0  0  0  0
  7 34  2  0  0  0  0
  8 13  1  0  0  0  0
  8 41  1  0  0  0  0
  9 18  1  0  0  0  0
  9 19  1  0  0  0  0
  9 52  1  0  0  0  0
 17 10  1  6  0  0  0
 10 22  1  0  0  0  0
 10 53  1  0  0  0  0
 20 11  1  6  0  0  0
 11 26  1  0  0  0  0
 11 60  1  0  0  0  0
 23 12  1  1  0  0  0
 12 34  1  0  0  0  0
 12 68  1  0  0  0  0
 13 37  2  0  0  0  0
 14 15  1  0  0  0  0
 14 16  1  0  0  0  0
 14 19  1  0  0  0  0
 14 44  1  0  0  0  0
 15 17  1  0  0  0  0
 15 45  1  0  0  0  0
 15 46  1  0  0  0  0
 16 18  1  0  0  0  0
 16 47  1  0  0  0  0
 16 48  1  0  0  0  0
 17 21  1  0  0  0  0
 17 49  1  0  0  0  0
 18 50  1  0  0  0  0
 18 51  1  0  0  0  0
 20 22  1  0  0  0  0
 20 24  1  0  0  0  0
 20 54  1  0  0  0  0
 21 27  2  0  0  0  0
 21 55  1  0  0  0  0
 23 25  1  0  0  0  0
 23 26  1  0  0  0  0
 23 56  1  0  0  0  0
 24 28  1  0  0  0  0
 24 57  1  0  0  0  0
 24 58  1  0  0  0  0
 25 29  1  0  0  0  0
 25 30  1  0  0  0  0
 25 59  1  0  0  0  0
 27 33  1  0  0  0  0
 27 61  1  0  0  0  0
 28 31  2  0  0  0  0
 28 32  1  0  0  0  0
 29 62  1  0  0  0  0
 29 63  1  0  0  0  0
 29 64  1  0  0  0  0
 30 65  1  0  0  0  0
 30 66  1  0  0  0  0
 30 67  1  0  0  0  0
 31 35  1  0  0  0  0
 31 69  1  0  0  0  0
 32 36  2  0  0  0  0
 32 70  1  0  0  0  0
 34 37  1  0  0  0  0
 35 38  2  0  0  0  0
 35 71  1  0  0  0  0
 36 38  1  0  0  0  0
 36 72  1  0  0  0  0
 37 39  1  0  0  0  0
 39 41  2  0  0  0  0
 39 73  1  0  0  0  0
 40 42  1  0  0  0  0
 40 74  1  0  0  0  0
 40 75  1  0  0  0  0
 41 43  1  0  0  0  0
 42 76  1  0  0  0  0
 42 77  1  0  0  0  0
 42 78  1  0  0  0  0
 43 79  1  0  0  0  0
 43 80  1  0  0  0  0
 43 81  1  0  0  0  0
M  END
> <PUBCHEM_COMPOUND_CID>
59016365

> <PUBCHEM_COMPOUND_CANONICALIZED>
1

> <PUBCHEM_CACTVS_COMPLEXITY>
1020

> <PUBCHEM_CACTVS_HBOND_ACCEPTOR>
9

> <PUBCHEM_CACTVS_HBOND_DONOR>
4

> <PUBCHEM_CACTVS_ROTATABLE_BOND>
15

> <PUBCHEM_CACTVS_SUBSKEYS>
AAADcfB7uQAAAAAAAAAAAAAAAAAAAWLAAAAwAAAAAAAAAAABwAAAHwAUAAAADSzhng4yjJLQBACpA6XyWgCCAAAmIgAomKG+bNoIZjqAtbOWMYhmlhiI6cc/iICOAAAAAAAAAAAAAAAAAAAAAAAAAAAAAA==

> <PUBCHEM_IUPAC_OPENEYE_NAME>
ethyl (E,4S)-4-[[(2S)-3-(4-fluorophenyl)-2-[[(2S)-3-methyl-2-[(5-methylisoxazole-3-carbonyl)amino]butanoyl]amino]propanoyl]amino]-5-(2-oxopyrrolidin-3-yl)pent-2-enoate

> <PUBCHEM_IUPAC_CAS_NAME>
(E,4S)-4-[[(2S)-3-(4-fluorophenyl)-2-[[(2S)-3-methyl-2-[[(5-methyl-3-isoxazolyl)-oxomethyl]amino]-1-oxobutyl]amino]-1-oxopropyl]amino]-5-(2-oxo-3-pyrrolidinyl)-2-pentenoic acid ethyl ester

> <PUBCHEM_IUPAC_NAME_MARKUP>
ethyl (<I>E</I>,4<I>S</I>)-4-[[(2<I>S</I>)-3-(4-fluorophenyl)-2-[[(2<I>S</I>)-3-methyl-2-[(5-methyl-1,2-oxazole-3-carbonyl)amino]butanoyl]amino]propanoyl]amino]-5-(2-oxopyrrolidin-3-yl)pent-2-enoate

> <PUBCHEM_IUPAC_NAME>
ethyl (E,4S)-4-[[(2S)-3-(4-fluorophenyl)-2-[[(2S)-3-methyl-2-[(5-methyl-1,2-oxazole-3-carbonyl)amino]butanoyl]amino]propanoyl]amino]-5-(2-oxopyrrolidin-3-yl)pent-2-enoate

> <PUBCHEM_IUPAC_SYSTEMATIC_NAME>
ethyl (E,4S)-4-[[(2S)-3-(4-fluorophenyl)-2-[[(2S)-3-methyl-2-[(5-methyl-1,2-oxazol-3-yl)carbonylamino]butanoyl]amino]propanoyl]amino]-5-(2-oxidanylidenepyrrolidin-3-yl)pent-2-enoate

> <PUBCHEM_IUPAC_TRADITIONAL_NAME>
(E,4S)-4-[[(2S)-3-(4-fluorophenyl)-2-[[(2S)-3-methyl-2-[(5-methylisoxazole-3-carbonyl)amino]butanoyl]amino]propanoyl]amino]-5-(2-ketopyrrolidin-3-yl)pent-2-enoic acid ethyl ester

> <PUBCHEM_IUPAC_INCHI>
InChI=1S/C30H38FN5O7/c1-5-42-25(37)11-10-22(16-20-12-13-32-27(20)38)33-28(39)23(15-19-6-8-21(31)9-7-19)34-30(41)26(17(2)3)35-29(40)24-14-18(4)43-36-24/h6-11,14,17,20,22-23,26H,5,12-13,15-16H2,1-4H3,(H,32,38)(H,33,39)(H,34,41)(H,35,40)/b11-10+/t20?,22-,23+,26+/m1/s1

> <PUBCHEM_IUPAC_INCHIKEY>
JSJRYDPMCHPLOL-PXNACGBOSA-N

> <PUBCHEM_XLOGP3_AA>
2.8

> <PUBCHEM_EXACT_MASS>
599.275527

> <PUBCHEM_MOLECULAR_FORMULA>
C30H38FN5O7

> <PUBCHEM_MOLECULAR_WEIGHT>
599.6

> <PUBCHEM_OPENEYE_CAN_SMILES>
CCOC(=O)C=CC(CC1CCNC1=O)NC(=O)C(CC2=CC=C(C=C2)F)NC(=O)C(C(C)C)NC(=O)C3=NOC(=C3)C

> <PUBCHEM_OPENEYE_ISO_SMILES>
CCOC(=O)/C=C/[C@H](CC1CCNC1=O)NC(=O)[C@H](CC2=CC=C(C=C2)F)NC(=O)[C@H](C(C)C)NC(=O)C3=NOC(=C3)C

> <PUBCHEM_CACTVS_TPSA>
169

> <PUBCHEM_MONOISOTOPIC_WEIGHT>
599.275527

> <PUBCHEM_TOTAL_CHARGE>
0

> <PUBCHEM_HEAVY_ATOM_COUNT>
43

> <PUBCHEM_ATOM_DEF_STEREO_COUNT>
3

> <PUBCHEM_ATOM_UDEF_STEREO_COUNT>
1

> <PUBCHEM_BOND_DEF_STEREO_COUNT>
1

> <PUBCHEM_BOND_UDEF_STEREO_COUNT>
0

> <PUBCHEM_ISOTOPIC_ATOM_COUNT>
0

> <PUBCHEM_COMPONENT_COUNT>
1

> <PUBCHEM_CACTVS_TAUTO_COUNT>
-1

> <PUBCHEM_COORDINATE_TYPE>
1
5
255

> <PUBCHEM_BONDANNOTATIONS>
17  10  6
20  11  6
23  12  5
13  37  8
14  15  3
28  31  8
28  32  8
31  35  8
32  36  8
35  38  8
36  38  8
37  39  8
39  41  8
8  13  8
8  41  8

$$$$
59038108
  -OEChem-02212016592D

 73 77  0     1  0  0  0  0  0999 V2000
    5.3147   -5.5580    0.0000 F   0  0  0  0  0  0  0  0  0  0  0  0
   10.7663   -1.6731    0.0000 O   0  0  0  0  0  0  0  0  0  0  0  0
   10.1449    1.4808    0.0000 O   0  0  0  0  0  0  0  0  0  0  0  0
    7.0468   -2.5580    0.0000 O   0  0  0  0  0  0  0  0  0  0  0  0
   11.4049    0.2208    0.0000 O   0  0  0  0  0  0  0  0  0  0  0  0
    4.4487   -0.0580    0.0000 O   0  0  0  0  0  0  0  0  0  0  0  0
    5.3147    3.4420    0.0000 O   0  0  0  0  0  0  0  0  0  0  0  0
    2.0000    3.7784    0.0000 O   0  0  0  0  0  0  0  0  0  0  0  0
   11.2275   -3.3944    0.0000 N   0  0  0  0  0  0  0  0  0  0  0  0
    7.9128   -1.0580    0.0000 N   0  0  0  0  0  0  0  0  0  0  0  0
    6.1808   -0.0580    0.0000 N   0  0  0  0  0  0  0  0  0  0  0  0
    4.4487    1.9420    0.0000 N   0  0  0  0  0  0  0  0  0  0  0  0
    2.6691    3.0353    0.0000 N   0  0  0  0  0  0  0  0  0  0  0  0
    9.6448   -3.0580    0.0000 C   0  0  2  0  0  0  0  0  0  0  0  0
    8.7788   -2.5580    0.0000 C   0  0  0  0  0  0  0  0  0  0  0  0
    9.7494   -4.0525    0.0000 C   0  0  0  0  0  0  0  0  0  0  0  0
    8.7788   -1.5580    0.0000 C   0  0  1  0  0  0  0  0  0  0  0  0
   10.7275   -4.2604    0.0000 C   0  0  0  0  0  0  0  0  0  0  0  0
   10.5584   -2.6512    0.0000 C   0  0  0  0  0  0  0  0  0  0  0  0
    9.6448   -1.0580    0.0000 C   0  0  0  0  0  0  0  0  0  0  0  0
    6.1808   -1.0580    0.0000 C   0  0  2  0  0  0  0  0  0  0  0  0
    7.0468   -1.5580    0.0000 C   0  0  0  0  0  0  0  0  0  0  0  0
    9.6448   -0.0580    0.0000 C   0  0  0  0  0  0  0  0  0  0  0  0
    5.3147   -1.5580    0.0000 C   0  0  0  0  0  0  0  0  0  0  0  0
    8.8358    0.5298    0.0000 C   0  0  0  0  0  0  0  0  0  0  0  0
    9.1448    1.4808    0.0000 C   0  0  0  0  0  0  0  0  0  0  0  0
   10.4539    0.5298    0.0000 C   0  0  0  0  0  0  0  0  0  0  0  0
    5.3147   -2.5580    0.0000 C   0  0  0  0  0  0  0  0  0  0  0  0
    5.3147    0.4420    0.0000 C   0  0  0  0  0  0  0  0  0  0  0  0
    7.0468    0.4420    0.0000 C   0  0  0  0  0  0  0  0  0  0  0  0
    5.3147    1.4420    0.0000 C   0  0  0  0  0  0  0  0  0  0  0  0
    6.1808   -3.0580    0.0000 C   0  0  0  0  0  0  0  0  0  0  0  0
    4.4487   -3.0580    0.0000 C   0  0  0  0  0  0  0  0  0  0  0  0
    7.0468    1.4420    0.0000 C   0  0  0  0  0  0  0  0  0  0  0  0
    6.1808    1.9420    0.0000 C   0  0  0  0  0  0  0  0  0  0  0  0
    6.1808   -4.0580    0.0000 C   0  0  0  0  0  0  0  0  0  0  0  0
    4.4487   -4.0580    0.0000 C   0  0  0  0  0  0  0  0  0  0  0  0
    5.3147   -4.5580    0.0000 C   0  0  0  0  0  0  0  0  0  0  0  0
    4.4487    2.9420    0.0000 C   0  0  0  0  0  0  0  0  0  0  0  0
    3.5827    3.4420    0.0000 C   0  0  0  0  0  0  0  0  0  0  0  0
    3.4782    4.4365    0.0000 C   0  0  0  0  0  0  0  0  0  0  0  0
    2.5000    4.6444    0.0000 C   0  0  0  0  0  0  0  0  0  0  0  0
    2.0933    5.5580    0.0000 C   0  0  0  0  0  0  0  0  0  0  0  0
    9.1249   -3.3957    0.0000 H   0  0  0  0  0  0  0  0  0  0  0  0
    8.1682   -2.4503    0.0000 H   0  0  0  0  0  0  0  0  0  0  0  0
    8.5668   -3.1406    0.0000 H   0  0  0  0  0  0  0  0  0  0  0  0
    9.1294   -4.0525    0.0000 H   0  0  0  0  0  0  0  0  0  0  0  0
    9.6846   -4.6691    0.0000 H   0  0  0  0  0  0  0  0  0  0  0  0
    8.2419   -1.8680    0.0000 H   0  0  0  0  0  0  0  0  0  0  0  0
   10.5359   -4.8501    0.0000 H   0  0  0  0  0  0  0  0  0  0  0  0
   11.2939   -4.5126    0.0000 H   0  0  0  0  0  0  0  0  0  0  0  0
   11.8441   -3.3296    0.0000 H   1  0  0  0  0  0  0  0  0  0  0  0
    7.9128   -0.4380    0.0000 H   0  0  0  0  0  0  0  0  0  0  0  0
   10.1818   -1.3680    0.0000 H   0  0  0  0  0  0  0  0  0  0  0  0
    6.7177   -0.7480    0.0000 H   0  0  0  0  0  0  0  0  0  0  0  0
    5.1027   -0.9754    0.0000 H   0  0  0  0  0  0  0  0  0  0  0  0
    4.7042   -1.6656    0.0000 H   0  0  0  0  0  0  0  0  0  0  0  0
    8.2694    0.7820    0.0000 H   0  0  0  0  0  0  0  0  0  0  0  0
    8.5258   -0.0071    0.0000 H   0  0  0  0  0  0  0  0  0  0  0  0
    9.2097    2.0975    0.0000 H   0  0  0  0  0  0  0  0  0  0  0  0
    8.5384    1.6098    0.0000 H   0  0  0  0  0  0  0  0  0  0  0  0
    7.5837    0.1320    0.0000 H   0  0  0  0  0  0  0  0  0  0  0  0
    6.7177   -2.7480    0.0000 H   0  0  0  0  0  0  0  0  0  0  0  0
    3.9118   -2.7480    0.0000 H   0  0  0  0  0  0  0  0  0  0  0  0
    7.5837    1.7520    0.0000 H   0  0  0  0  0  0  0  0  0  0  0  0
    6.1808    2.5620    0.0000 H   0  0  0  0  0  0  0  0  0  0  0  0
    6.7177   -4.3680    0.0000 H   0  0  0  0  0  0  0  0  0  0  0  0
    3.9118   -4.3680    0.0000 H   0  0  0  0  0  0  0  0  0  0  0  0
    3.9118    1.6320    0.0000 H   0  0  0  0  0  0  0  0  0  0  0  0
    3.9389    4.8514    0.0000 H   0  0  0  0  0  0  0  0  0  0  0  0
    2.6597    5.8102    0.0000 H   0  0  0  0  0  0  0  0  0  0  0  0
    1.8411    6.1244    0.0000 H   0  0  0  0  0  0  0  0  0  0  0  0
    1.5269    5.3058    0.0000 H   0  0  0  0  0  0  0  0  0  0  0  0
  1 38  1  0  0  0  0
  2 19  2  0  0  0  0
  3 26  1  0  0  0  0
  3 27  1  0  0  0  0
  4 22  2  0  0  0  0
  5 27  2  0  0  0  0
  6 29  2  0  0  0  0
  7 39  2  0  0  0  0
  8 13  1  0  0  0  0
  8 42  1  0  0  0  0
  9 18  1  0  0  0  0
  9 19  1  0  0  0  0
  9 52  1  0  0  0  0
 17 10  1  6  0  0  0
 10 22  1  0  0  0  0
 10 53  1  0  0  0  0
 11 21  1  0  0  0  0
 11 29  1  0  0  0  0
 11 30  1  0  0  0  0
 12 31  1  0  0  0  0
 12 39  1  0  0  0  0
 12 69  1  0  0  0  0
 13 40  2  0  0  0  0
 14 15  1  1  0  0  0
 14 16  1  0  0  0  0
 14 19  1  0  0  0  0
 14 44  1  0  0  0  0
 15 17  1  0  0  0  0
 15 45  1  0  0  0  0
 15 46  1  0  0  0  0
 16 18  1  0  0  0  0
 16 47  1  0  0  0  0
 16 48  1  0  0  0  0
 17 20  1  0  0  0  0
 17 49  1  0  0  0  0
 18 50  1  0  0  0  0
 18 51  1  0  0  0  0
 20 23  2  0  0  0  0
 20 54  1  0  0  0  0
 21 22  1  6  0  0  0
 21 24  1  0  0  0  0
 21 55  1  0  0  0  0
 23 25  1  0  0  0  0
 23 27  1  0  0  0  0
 24 28  1  0  0  0  0
 24 56  1  0  0  0  0
 24 57  1  0  0  0  0
 25 26  1  0  0  0  0
 25 58  1  0  0  0  0
 25 59  1  0  0  0  0
 26 60  1  0  0  0  0
 26 61  1  0  0  0  0
 28 32  2  0  0  0  0
 28 33  1  0  0  0  0
 29 31  1  0  0  0  0
 30 34  2  0  0  0  0
 30 62  1  0  0  0  0
 31 35  2  0  0  0  0
 32 36  1  0  0  0  0
 32 63  1  0  0  0  0
 33 37  2  0  0  0  0
 33 64  1  0  0  0  0
 34 35  1  0  0  0  0
 34 65  1  0  0  0  0
 35 66  1  0  0  0  0
 36 38  2  0  0  0  0
 36 67  1  0  0  0  0
 37 38  1  0  0  0  0
 37 68  1  0  0  0  0
 39 40  1  0  0  0  0
 40 41  1  0  0  0  0
 41 42  2  0  0  0  0
 41 70  1  0  0  0  0
 42 43  1  0  0  0  0
 43 71  1  0  0  0  0
 43 72  1  0  0  0  0
 43 73  1  0  0  0  0
M  ISO  1  52   2
M  END
> <PUBCHEM_COMPOUND_CID>
59038108

> <PUBCHEM_COMPOUND_CANONICALIZED>
1

> <PUBCHEM_CACTVS_COMPLEXITY>
1210

> <PUBCHEM_CACTVS_HBOND_ACCEPTOR>
9

> <PUBCHEM_CACTVS_HBOND_DONOR>
3

> <PUBCHEM_CACTVS_ROTATABLE_BOND>
10

> <PUBCHEM_CACTVS_SUBSKEYS>
AAADceB7uQAAAAAAAAAAAAAAAAAAAWLEgAAwQAAAAAAAAAABwAAAHwAUAAAADSzhng4yjJPQBACpA6X2WgCCAAAmIgAomKG+bNoIZjqAtbOWMYhm1hiI6cc/iICOAAAAAAAAAAAAAAAAAAAAAAAAAAAAAA==

> <PUBCHEM_IUPAC_OPENEYE_NAME>
N-[1-[(1S)-2-[[(1S,2E)-1-[[(3S)-1-deuterio-2-oxo-pyrrolidin-3-yl]methyl]-2-(2-oxotetrahydrofuran-3-ylidene)ethyl]amino]-1-[(4-fluorophenyl)methyl]-2-oxo-ethyl]-2-oxo-3-pyridyl]-5-methyl-isoxazole-3-carboxamide

> <PUBCHEM_IUPAC_CAS_NAME>
N-[1-[(2S)-1-[[(2S,3E)-1-[(3S)-1-deuterio-2-oxo-3-pyrrolidinyl]-3-(2-oxo-3-oxolanylidene)propan-2-yl]amino]-3-(4-fluorophenyl)-1-oxopropan-2-yl]-2-oxo-3-pyridinyl]-5-methyl-3-isoxazolecarboxamide

> <PUBCHEM_IUPAC_NAME_MARKUP>
<I>N</I>-[1-[(2<I>S</I>)-1-[[(2<I>S</I>,3<I>E</I>)-1-[(3<I>S</I>)-1-deuterio-2-oxopyrrolidin-3-yl]-3-(2-oxooxolan-3-ylidene)propan-2-yl]amino]-3-(4-fluorophenyl)-1-oxopropan-2-yl]-2-oxopyridin-3-yl]-5-methyl-1,2-oxazole-3-carboxamide

> <PUBCHEM_IUPAC_NAME>
N-[1-[(2S)-1-[[(2S,3E)-1-[(3S)-1-deuterio-2-oxopyrrolidin-3-yl]-3-(2-oxooxolan-3-ylidene)propan-2-yl]amino]-3-(4-fluorophenyl)-1-oxopropan-2-yl]-2-oxopyridin-3-yl]-5-methyl-1,2-oxazole-3-carboxamide

> <PUBCHEM_IUPAC_SYSTEMATIC_NAME>
N-[1-[(2S)-1-[[(2S,3E)-1-[(3S)-1-deuterio-2-oxidanylidene-pyrrolidin-3-yl]-3-(2-oxidanylideneoxolan-3-ylidene)propan-2-yl]amino]-3-(4-fluorophenyl)-1-oxidanylidene-propan-2-yl]-2-oxidanylidene-pyridin-3-yl]-5-methyl-1,2-oxazole-3-carboxamide

> <PUBCHEM_IUPAC_TRADITIONAL_NAME>
N-[1-[(1S)-2-[[(1S,2E)-1-[[(3S)-1-deuterio-2-keto-pyrrolidin-3-yl]methyl]-2-(2-ketotetrahydrofuran-3-ylidene)ethyl]amino]-1-(4-fluorobenzyl)-2-keto-ethyl]-2-keto-3-pyridyl]-5-methyl-isoxazole-3-carboxamide

> <PUBCHEM_IUPAC_INCHI>
InChI=1S/C30H30FN5O7/c1-17-13-24(35-43-17)27(38)34-23-3-2-11-36(29(23)40)25(14-18-4-6-21(31)7-5-18)28(39)33-22(15-19-8-10-32-26(19)37)16-20-9-12-42-30(20)41/h2-7,11,13,16,19,22,25H,8-10,12,14-15H2,1H3,(H,32,37)(H,33,39)(H,34,38)/b20-16+/t19-,22-,25-/m0/s1/i/hD

> <PUBCHEM_IUPAC_INCHIKEY>
SYRRIXCEQDEKDO-IVYFYJDCSA-N

> <PUBCHEM_XLOGP3_AA>
2

> <PUBCHEM_EXACT_MASS>
592.219203

> <PUBCHEM_MOLECULAR_FORMULA>
C30H30FN5O7

> <PUBCHEM_MOLECULAR_WEIGHT>
592.6

> <PUBCHEM_OPENEYE_CAN_SMILES>
CC1=CC(=NO1)C(=O)NC2=CC=CN(C2=O)C(CC3=CC=C(C=C3)F)C(=O)NC(CC4CCNC4=O)C=C5CCOC5=O

> <PUBCHEM_OPENEYE_ISO_SMILES>
[2H]N1CC[C@H](C1=O)C[C@@H](/C=C/2\CCOC2=O)NC(=O)[C@H](CC3=CC=C(C=C3)F)N4C=CC=C(C4=O)NC(=O)C5=NOC(=C5)C

> <PUBCHEM_CACTVS_TPSA>
160

> <PUBCHEM_MONOISOTOPIC_WEIGHT>
592.219203

> <PUBCHEM_TOTAL_CHARGE>
0

> <PUBCHEM_HEAVY_ATOM_COUNT>
43

> <PUBCHEM_ATOM_DEF_STEREO_COUNT>
3

> <PUBCHEM_ATOM_UDEF_STEREO_COUNT>
0

> <PUBCHEM_BOND_DEF_STEREO_COUNT>
1

> <PUBCHEM_BOND_UDEF_STEREO_COUNT>
0

> <PUBCHEM_ISOTOPIC_ATOM_COUNT>
1

> <PUBCHEM_COMPONENT_COUNT>
1

> <PUBCHEM_CACTVS_TAUTO_COUNT>
-1

> <PUBCHEM_COORDINATE_TYPE>
1
5
255

> <PUBCHEM_BONDANNOTATIONS>
17  10  6
11  29  8
11  30  8
13  40  8
14  15  5
21  22  6
28  32  8
28  33  8
29  31  8
30  34  8
31  35  8
32  36  8
33  37  8
34  35  8
36  38  8
37  38  8
40  41  8
41  42  8
8  13  8
8  42  8

$$$$
59038148
  -OEChem-02212016592D

 73 77  0     1  0  0  0  0  0999 V2000
    5.3147   -5.5580    0.0000 F   0  0  0  0  0  0  0  0  0  0  0  0
   10.7663   -1.6731    0.0000 O   0  0  0  0  0  0  0  0  0  0  0  0
   10.1449    1.4808    0.0000 O   0  0  0  0  0  0  0  0  0  0  0  0
    7.0468   -2.5580    0.0000 O   0  0  0  0  0  0  0  0  0  0  0  0
   11.4049    0.2208    0.0000 O   0  0  0  0  0  0  0  0  0  0  0  0
    4.4487   -0.0580    0.0000 O   0  0  0  0  0  0  0  0  0  0  0  0
    5.3147    3.4420    0.0000 O   0  0  0  0  0  0  0  0  0  0  0  0
    2.0000    3.7784    0.0000 O   0  0  0  0  0  0  0  0  0  0  0  0
   11.2275   -3.3944    0.0000 N   0  0  0  0  0  0  0  0  0  0  0  0
    7.9128   -1.0580    0.0000 N   0  0  0  0  0  0  0  0  0  0  0  0
    6.1808   -0.0580    0.0000 N   0  0  0  0  0  0  0  0  0  0  0  0
    4.4487    1.9420    0.0000 N   0  0  0  0  0  0  0  0  0  0  0  0
    2.6691    3.0353    0.0000 N   0  0  0  0  0  0  0  0  0  0  0  0
    9.6448   -3.0580    0.0000 C   0  0  2  0  0  0  0  0  0  0  0  0
    8.7788   -2.5580    0.0000 C   0  0  0  0  0  0  0  0  0  0  0  0
    9.7494   -4.0525    0.0000 C   0  0  0  0  0  0  0  0  0  0  0  0
    8.7788   -1.5580    0.0000 C   0  0  1  0  0  0  0  0  0  0  0  0
   10.7275   -4.2604    0.0000 C   0  0  0  0  0  0  0  0  0  0  0  0
   10.5584   -2.6512    0.0000 C   0  0  0  0  0  0  0  0  0  0  0  0
    9.6448   -1.0580    0.0000 C   0  0  0  0  0  0  0  0  0  0  0  0
    6.1808   -1.0580    0.0000 C   0  0  2  0  0  0  0  0  0  0  0  0
    7.0468   -1.5580    0.0000 C   0  0  0  0  0  0  0  0  0  0  0  0
    9.6448   -0.0580    0.0000 C   0  0  0  0  0  0  0  0  0  0  0  0
    5.3147   -1.5580    0.0000 C   0  0  0  0  0  0  0  0  0  0  0  0
    8.8358    0.5298    0.0000 C   0  0  0  0  0  0  0  0  0  0  0  0
    9.1448    1.4808    0.0000 C   0  0  0  0  0  0  0  0  0  0  0  0
   10.4539    0.5298    0.0000 C   0  0  0  0  0  0  0  0  0  0  0  0
    5.3147   -2.5580    0.0000 C   0  0  0  0  0  0  0  0  0  0  0  0
    5.3147    0.4420    0.0000 C   0  0  0  0  0  0  0  0  0  0  0  0
    7.0468    0.4420    0.0000 C   0  0  0  0  0  0  0  0  0  0  0  0
    5.3147    1.4420    0.0000 C   0  0  0  0  0  0  0  0  0  0  0  0
    6.1808   -3.0580    0.0000 C   0  0  0  0  0  0  0  0  0  0  0  0
    4.4487   -3.0580    0.0000 C   0  0  0  0  0  0  0  0  0  0  0  0
    7.0468    1.4420    0.0000 C   0  0  0  0  0  0  0  0  0  0  0  0
    6.1808    1.9420    0.0000 C   0  0  0  0  0  0  0  0  0  0  0  0
    6.1808   -4.0580    0.0000 C   0  0  0  0  0  0  0  0  0  0  0  0
    4.4487   -4.0580    0.0000 C   0  0  0  0  0  0  0  0  0  0  0  0
    5.3147   -4.5580    0.0000 C   0  0  0  0  0  0  0  0  0  0  0  0
    4.4487    2.9420    0.0000 C   0  0  0  0  0  0  0  0  0  0  0  0
    3.5827    3.4420    0.0000 C   0  0  0  0  0  0  0  0  0  0  0  0
    3.4782    4.4365    0.0000 C   0  0  0  0  0  0  0  0  0  0  0  0
    2.5000    4.6444    0.0000 C   0  0  0  0  0  0  0  0  0  0  0  0
    2.0933    5.5580    0.0000 C   0  0  0  0  0  0  0  0  0  0  0  0
    9.1249   -3.3957    0.0000 H   0  0  0  0  0  0  0  0  0  0  0  0
    8.1682   -2.4503    0.0000 H   0  0  0  0  0  0  0  0  0  0  0  0
    8.5668   -3.1406    0.0000 H   0  0  0  0  0  0  0  0  0  0  0  0
    9.1294   -4.0525    0.0000 H   0  0  0  0  0  0  0  0  0  0  0  0
    9.6846   -4.6691    0.0000 H   0  0  0  0  0  0  0  0  0  0  0  0
    8.2419   -1.8680    0.0000 H   0  0  0  0  0  0  0  0  0  0  0  0
   10.5359   -4.8501    0.0000 H   0  0  0  0  0  0  0  0  0  0  0  0
   11.2939   -4.5126    0.0000 H   0  0  0  0  0  0  0  0  0  0  0  0
   11.8441   -3.3296    0.0000 H   0  0  0  0  0  0  0  0  0  0  0  0
    7.9128   -0.4380    0.0000 H   0  0  0  0  0  0  0  0  0  0  0  0
   10.1818   -1.3680    0.0000 H   0  0  0  0  0  0  0  0  0  0  0  0
    6.7177   -0.7480    0.0000 H   0  0  0  0  0  0  0  0  0  0  0  0
    5.1027   -0.9754    0.0000 H   0  0  0  0  0  0  0  0  0  0  0  0
    4.7042   -1.6656    0.0000 H   0  0  0  0  0  0  0  0  0  0  0  0
    8.2694    0.7820    0.0000 H   0  0  0  0  0  0  0  0  0  0  0  0
    8.5258   -0.0071    0.0000 H   0  0  0  0  0  0  0  0  0  0  0  0
    9.2097    2.0975    0.0000 H   0  0  0  0  0  0  0  0  0  0  0  0
    8.5384    1.6098    0.0000 H   0  0  0  0  0  0  0  0  0  0  0  0
    7.5837    0.1320    0.0000 H   0  0  0  0  0  0  0  0  0  0  0  0
    6.7177   -2.7480    0.0000 H   0  0  0  0  0  0  0  0  0  0  0  0
    3.9118   -2.7480    0.0000 H   0  0  0  0  0  0  0  0  0  0  0  0
    7.5837    1.7520    0.0000 H   0  0  0  0  0  0  0  0  0  0  0  0
    6.1808    2.5620    0.0000 H   0  0  0  0  0  0  0  0  0  0  0  0
    6.7177   -4.3680    0.0000 H   0  0  0  0  0  0  0  0  0  0  0  0
    3.9118   -4.3680    0.0000 H   0  0  0  0  0  0  0  0  0  0  0  0
    3.9118    1.6320    0.0000 H   0  0  0  0  0  0  0  0  0  0  0  0
    3.9389    4.8514    0.0000 H   0  0  0  0  0  0  0  0  0  0  0  0
    2.6597    5.8102    0.0000 H   0  0  0  0  0  0  0  0  0  0  0  0
    1.8411    6.1244    0.0000 H   0  0  0  0  0  0  0  0  0  0  0  0
    1.5269    5.3058    0.0000 H   0  0  0  0  0  0  0  0  0  0  0  0
  1 38  1  0  0  0  0
  2 19  2  0  0  0  0
  3 26  1  0  0  0  0
  3 27  1  0  0  0  0
  4 22  2  0  0  0  0
  5 27  2  0  0  0  0
  6 29  2  0  0  0  0
  7 39  2  0  0  0  0
  8 13  1  0  0  0  0
  8 42  1  0  0  0  0
  9 18  1  0  0  0  0
  9 19  1  0  0  0  0
  9 52  1  0  0  0  0
 17 10  1  6  0  0  0
 10 22  1  0  0  0  0
 10 53  1  0  0  0  0
 11 21  1  0  0  0  0
 11 29  1  0  0  0  0
 11 30  1  0  0  0  0
 12 31  1  0  0  0  0
 12 39  1  0  0  0  0
 12 69  1  0  0  0  0
 13 40  2  0  0  0  0
 14 15  1  1  0  0  0
 14 16  1  0  0  0  0
 14 19  1  0  0  0  0
 14 44  1  0  0  0  0
 15 17  1  0  0  0  0
 15 45  1  0  0  0  0
 15 46  1  0  0  0  0
 16 18  1  0  0  0  0
 16 47  1  0  0  0  0
 16 48  1  0  0  0  0
 17 20  1  0  0  0  0
 17 49  1  0  0  0  0
 18 50  1  0  0  0  0
 18 51  1  0  0  0  0
 20 23  2  0  0  0  0
 20 54  1  0  0  0  0
 21 22  1  6  0  0  0
 21 24  1  0  0  0  0
 21 55  1  0  0  0  0
 23 25  1  0  0  0  0
 23 27  1  0  0  0  0
 24 28  1  0  0  0  0
 24 56  1  0  0  0  0
 24 57  1  0  0  0  0
 25 26  1  0  0  0  0
 25 58  1  0  0  0  0
 25 59  1  0  0  0  0
 26 60  1  0  0  0  0
 26 61  1  0  0  0  0
 28 32  2  0  0  0  0
 28 33  1  0  0  0  0
 29 31  1  0  0  0  0
 30 34  2  0  0  0  0
 30 62  1  0  0  0  0
 31 35  2  0  0  0  0
 32 36  1  0  0  0  0
 32 63  1  0  0  0  0
 33 37  2  0  0  0  0
 33 64  1  0  0  0  0
 34 35  1  0  0  0  0
 34 65  1  0  0  0  0
 35 66  1  0  0  0  0
 36 38  2  0  0  0  0
 36 67  1  0  0  0  0
 37 38  1  0  0  0  0
 37 68  1  0  0  0  0
 39 40  1  0  0  0  0
 40 41  1  0  0  0  0
 41 42  2  0  0  0  0
 41 70  1  0  0  0  0
 42 43  1  0  0  0  0
 43 71  1  0  0  0  0
 43 72  1  0  0  0  0
 43 73  1  0  0  0  0
M  END
> <PUBCHEM_COMPOUND_CID>
59038148

> <PUBCHEM_COMPOUND_CANONICALIZED>
1

> <PUBCHEM_CACTVS_COMPLEXITY>
1210

> <PUBCHEM_CACTVS_HBOND_ACCEPTOR>
9

> <PUBCHEM_CACTVS_HBOND_DONOR>
3

> <PUBCHEM_CACTVS_ROTATABLE_BOND>
10

> <PUBCHEM_CACTVS_SUBSKEYS>
AAADceB7uQAAAAAAAAAAAAAAAAAAAWLEgAAwQAAAAAAAAAABwAAAHwAUAAAADSzhng4yjJPQBACpA6X2WgCCAAAmIgAomKG+bNoIZjqAtbOWMYhm1hiI6cc/iICOAAAAAAAAAAAAAAAAAAAAAAAAAAAAAA==

> <PUBCHEM_IUPAC_OPENEYE_NAME>
N-[1-[(1S)-1-[(4-fluorophenyl)methyl]-2-oxo-2-[[(1S,2E)-1-[[(3S)-2-oxopyrrolidin-3-yl]methyl]-2-(2-oxotetrahydrofuran-3-ylidene)ethyl]amino]ethyl]-2-oxo-3-pyridyl]-5-methyl-isoxazole-3-carboxamide

> <PUBCHEM_IUPAC_CAS_NAME>
N-[1-[(2S)-3-(4-fluorophenyl)-1-oxo-1-[[(1E,2S)-1-(2-oxo-3-oxolanylidene)-3-[(3S)-2-oxo-3-pyrrolidinyl]propan-2-yl]amino]propan-2-yl]-2-oxo-3-pyridinyl]-5-methyl-3-isoxazolecarboxamide

> <PUBCHEM_IUPAC_NAME_MARKUP>
<I>N</I>-[1-[(2<I>S</I>)-3-(4-fluorophenyl)-1-oxo-1-[[(1<I>E</I>,2<I>S</I>)-1-(2-oxooxolan-3-ylidene)-3-[(3<I>S</I>)-2-oxopyrrolidin-3-yl]propan-2-yl]amino]propan-2-yl]-2-oxopyridin-3-yl]-5-methyl-1,2-oxazole-3-carboxamide

> <PUBCHEM_IUPAC_NAME>
N-[1-[(2S)-3-(4-fluorophenyl)-1-oxo-1-[[(1E,2S)-1-(2-oxooxolan-3-ylidene)-3-[(3S)-2-oxopyrrolidin-3-yl]propan-2-yl]amino]propan-2-yl]-2-oxopyridin-3-yl]-5-methyl-1,2-oxazole-3-carboxamide

> <PUBCHEM_IUPAC_SYSTEMATIC_NAME>
N-[1-[(2S)-3-(4-fluorophenyl)-1-oxidanylidene-1-[[(1E,2S)-1-(2-oxidanylideneoxolan-3-ylidene)-3-[(3S)-2-oxidanylidenepyrrolidin-3-yl]propan-2-yl]amino]propan-2-yl]-2-oxidanylidene-pyridin-3-yl]-5-methyl-1,2-oxazole-3-carboxamide

> <PUBCHEM_IUPAC_TRADITIONAL_NAME>
N-[1-[(1S)-1-(4-fluorobenzyl)-2-keto-2-[[(1S,2E)-1-[[(3S)-2-ketopyrrolidin-3-yl]methyl]-2-(2-ketotetrahydrofuran-3-ylidene)ethyl]amino]ethyl]-2-keto-3-pyridyl]-5-methyl-isoxazole-3-carboxamide

> <PUBCHEM_IUPAC_INCHI>
InChI=1S/C30H30FN5O7/c1-17-13-24(35-43-17)27(38)34-23-3-2-11-36(29(23)40)25(14-18-4-6-21(31)7-5-18)28(39)33-22(15-19-8-10-32-26(19)37)16-20-9-12-42-30(20)41/h2-7,11,13,16,19,22,25H,8-10,12,14-15H2,1H3,(H,32,37)(H,33,39)(H,34,38)/b20-16+/t19-,22-,25-/m0/s1

> <PUBCHEM_IUPAC_INCHIKEY>
SYRRIXCEQDEKDO-SDZDJANQSA-N

> <PUBCHEM_XLOGP3_AA>
2

> <PUBCHEM_EXACT_MASS>
591.212926

> <PUBCHEM_MOLECULAR_FORMULA>
C30H30FN5O7

> <PUBCHEM_MOLECULAR_WEIGHT>
591.6

> <PUBCHEM_OPENEYE_CAN_SMILES>
CC1=CC(=NO1)C(=O)NC2=CC=CN(C2=O)C(CC3=CC=C(C=C3)F)C(=O)NC(CC4CCNC4=O)C=C5CCOC5=O

> <PUBCHEM_OPENEYE_ISO_SMILES>
CC1=CC(=NO1)C(=O)NC2=CC=CN(C2=O)[C@@H](CC3=CC=C(C=C3)F)C(=O)N[C@@H](C[C@@H]4CCNC4=O)/C=C/5\CCOC5=O

> <PUBCHEM_CACTVS_TPSA>
160

> <PUBCHEM_MONOISOTOPIC_WEIGHT>
591.212926

> <PUBCHEM_TOTAL_CHARGE>
0

> <PUBCHEM_HEAVY_ATOM_COUNT>
43

> <PUBCHEM_ATOM_DEF_STEREO_COUNT>
3

> <PUBCHEM_ATOM_UDEF_STEREO_COUNT>
0

> <PUBCHEM_BOND_DEF_STEREO_COUNT>
1

> <PUBCHEM_BOND_UDEF_STEREO_COUNT>
0

> <PUBCHEM_ISOTOPIC_ATOM_COUNT>
0

> <PUBCHEM_COMPONENT_COUNT>
1

> <PUBCHEM_CACTVS_TAUTO_COUNT>
-1

> <PUBCHEM_COORDINATE_TYPE>
1
5
255

> <PUBCHEM_BONDANNOTATIONS>
17  10  6
11  29  8
11  30  8
13  40  8
14  15  5
21  22  6
28  32  8
28  33  8
29  31  8
30  34  8
31  35  8
32  36  8
33  37  8
34  35  8
36  38  8
37  38  8
40  41  8
41  42  8
8  13  8
8  42  8

$$$$
59217745
  -OEChem-02212016592D

 51 52  0     1  0  0  0  0  0999 V2000
    4.5981    3.1920    0.0000 O   0  0  0  0  0  0  0  0  0  0  0  0
    3.7320   -2.3080    0.0000 O   0  0  0  0  0  0  0  0  0  0  0  0
    6.3301    0.1920    0.0000 O   0  0  0  0  0  0  0  0  0  0  0  0
    2.8660   -0.8080    0.0000 O   0  0  0  0  0  0  0  0  0  0  0  0
    5.4641    3.6920    0.0000 O   0  0  0  0  0  0  0  0  0  0  0  0
    8.7788    4.0284    0.0000 O   0  0  0  0  0  0  0  0  0  0  0  0
    4.5981    0.1920    0.0000 N   0  0  0  0  0  0  0  0  0  0  0  0
    6.3301    2.1920    0.0000 N   0  0  0  0  0  0  0  0  0  0  0  0
    8.1097    3.2853    0.0000 N   0  0  0  0  0  0  0  0  0  0  0  0
    5.4641    1.6920    0.0000 C   0  0  2  0  0  0  0  0  0  0  0  0
    4.5981   -0.8080    0.0000 C   0  0  1  0  0  0  0  0  0  0  0  0
    5.4641    0.6920    0.0000 C   0  0  0  0  0  0  0  0  0  0  0  0
    4.5981    2.1920    0.0000 C   0  0  0  0  0  0  0  0  0  0  0  0
    5.4641   -1.3080    0.0000 C   0  0  0  0  0  0  0  0  0  0  0  0
    3.7320   -1.3080    0.0000 C   0  0  0  0  0  0  0  0  0  0  0  0
    6.3301    3.1920    0.0000 C   0  0  0  0  0  0  0  0  0  0  0  0
    2.8660   -2.8080    0.0000 C   0  0  0  0  0  0  0  0  0  0  0  0
    7.1962    3.6920    0.0000 C   0  0  0  0  0  0  0  0  0  0  0  0
    2.8660   -3.8080    0.0000 C   0  0  0  0  0  0  0  0  0  0  0  0
    7.3007    4.6865    0.0000 C   0  0  0  0  0  0  0  0  0  0  0  0
    3.7320    3.6920    0.0000 C   0  0  0  0  0  0  0  0  0  0  0  0
    8.2788    4.8944    0.0000 C   0  0  0  0  0  0  0  0  0  0  0  0
    2.0000   -4.3080    0.0000 C   0  0  0  0  0  0  0  0  0  0  0  0
    3.7320   -4.3080    0.0000 C   0  0  0  0  0  0  0  0  0  0  0  0
    2.0000   -5.3080    0.0000 C   0  0  0  0  0  0  0  0  0  0  0  0
    3.7320   -5.3080    0.0000 C   0  0  0  0  0  0  0  0  0  0  0  0
    8.6856    5.8080    0.0000 C   0  0  0  0  0  0  0  0  0  0  0  0
    2.8660   -5.8080    0.0000 C   0  0  0  0  0  0  0  0  0  0  0  0
    5.4641    2.3120    0.0000 H   0  0  0  0  0  0  0  0  0  0  0  0
    5.1350   -0.4980    0.0000 H   0  0  0  0  0  0  0  0  0  0  0  0
    3.9875    2.2997    0.0000 H   0  0  0  0  0  0  0  0  0  0  0  0
    4.3860    1.6094    0.0000 H   0  0  0  0  0  0  0  0  0  0  0  0
    4.0611    0.5020    0.0000 H   0  0  0  0  0  0  0  0  0  0  0  0
    6.8671    1.8820    0.0000 H   0  0  0  0  0  0  0  0  0  0  0  0
    5.1541   -1.8449    0.0000 H   0  0  0  0  0  0  0  0  0  0  0  0
    6.0010   -1.6180    0.0000 H   0  0  0  0  0  0  0  0  0  0  0  0
    5.7741   -0.7711    0.0000 H   0  0  0  0  0  0  0  0  0  0  0  0
    2.6540   -2.2254    0.0000 H   0  0  0  0  0  0  0  0  0  0  0  0
    2.2554   -2.9156    0.0000 H   0  0  0  0  0  0  0  0  0  0  0  0
    6.8399    5.1014    0.0000 H   0  0  0  0  0  0  0  0  0  0  0  0
    4.0420    4.2290    0.0000 H   0  0  0  0  0  0  0  0  0  0  0  0
    3.1951    4.0020    0.0000 H   0  0  0  0  0  0  0  0  0  0  0  0
    3.4220    3.1551    0.0000 H   0  0  0  0  0  0  0  0  0  0  0  0
    1.4631   -3.9980    0.0000 H   0  0  0  0  0  0  0  0  0  0  0  0
    4.2690   -3.9980    0.0000 H   0  0  0  0  0  0  0  0  0  0  0  0
    1.4631   -5.6180    0.0000 H   0  0  0  0  0  0  0  0  0  0  0  0
    4.2690   -5.6180    0.0000 H   0  0  0  0  0  0  0  0  0  0  0  0
    9.2520    5.5558    0.0000 H   0  0  0  0  0  0  0  0  0  0  0  0
    8.9377    6.3744    0.0000 H   0  0  0  0  0  0  0  0  0  0  0  0
    8.1192    6.0602    0.0000 H   0  0  0  0  0  0  0  0  0  0  0  0
    2.8660   -6.4280    0.0000 H   0  0  0  0  0  0  0  0  0  0  0  0
  1 13  1  0  0  0  0
  1 21  1  0  0  0  0
  2 15  1  0  0  0  0
  2 17  1  0  0  0  0
  3 12  2  0  0  0  0
  4 15  2  0  0  0  0
  5 16  2  0  0  0  0
  6  9  1  0  0  0  0
  6 22  1  0  0  0  0
 11  7  1  1  0  0  0
  7 12  1  0  0  0  0
  7 33  1  0  0  0  0
 10  8  1  6  0  0  0
  8 16  1  0  0  0  0
  8 34  1  0  0  0  0
  9 18  2  0  0  0  0
 10 12  1  0  0  0  0
 10 13  1  0  0  0  0
 10 29  1  0  0  0  0
 11 14  1  0  0  0  0
 11 15  1  0  0  0  0
 11 30  1  0  0  0  0
 13 31  1  0  0  0  0
 13 32  1  0  0  0  0
 14 35  1  0  0  0  0
 14 36  1  0  0  0  0
 14 37  1  0  0  0  0
 16 18  1  0  0  0  0
 17 19  1  0  0  0  0
 17 38  1  0  0  0  0
 17 39  1  0  0  0  0
 18 20  1  0  0  0  0
 19 23  2  0  0  0  0
 19 24  1  0  0  0  0
 20 22  2  0  0  0  0
 20 40  1  0  0  0  0
 21 41  1  0  0  0  0
 21 42  1  0  0  0  0
 21 43  1  0  0  0  0
 22 27  1  0  0  0  0
 23 25  1  0  0  0  0
 23 44  1  0  0  0  0
 24 26  2  0  0  0  0
 24 45  1  0  0  0  0
 25 28  2  0  0  0  0
 25 46  1  0  0  0  0
 26 28  1  0  0  0  0
 26 47  1  0  0  0  0
 27 48  1  0  0  0  0
 27 49  1  0  0  0  0
 27 50  1  0  0  0  0
 28 51  1  0  0  0  0
M  END
> <PUBCHEM_COMPOUND_CID>
59217745

> <PUBCHEM_COMPOUND_CANONICALIZED>
1

> <PUBCHEM_CACTVS_COMPLEXITY>
538

> <PUBCHEM_CACTVS_HBOND_ACCEPTOR>
7

> <PUBCHEM_CACTVS_HBOND_DONOR>
2

> <PUBCHEM_CACTVS_ROTATABLE_BOND>
10

> <PUBCHEM_CACTVS_SUBSKEYS>
AAADceB7OAAAAAAAAAAAAAAAAAAAAWAAAAAwAAAAAAAAAAABwAAAHgAUAAAADCzhngYyjJLQBACpA6XyWgCCAAAmIgAomKG+bNoKZj6AtbuXMYhm9hmY6ce/wCAOAAAAAAAAAAAAAAAAAAAAAAAAAAAAAA==

> <PUBCHEM_IUPAC_OPENEYE_NAME>
benzyl (2S)-2-[[(2S)-3-methoxy-2-[(5-methylisoxazole-3-carbonyl)amino]propanoyl]amino]propanoate

> <PUBCHEM_IUPAC_CAS_NAME>
(2S)-2-[[(2S)-3-methoxy-2-[[(5-methyl-3-isoxazolyl)-oxomethyl]amino]-1-oxopropyl]amino]propanoic acid (phenylmethyl) ester

> <PUBCHEM_IUPAC_NAME_MARKUP>
benzyl (2<I>S</I>)-2-[[(2<I>S</I>)-3-methoxy-2-[(5-methyl-1,2-oxazole-3-carbonyl)amino]propanoyl]amino]propanoate

> <PUBCHEM_IUPAC_NAME>
benzyl (2S)-2-[[(2S)-3-methoxy-2-[(5-methyl-1,2-oxazole-3-carbonyl)amino]propanoyl]amino]propanoate

> <PUBCHEM_IUPAC_SYSTEMATIC_NAME>
(phenylmethyl) (2S)-2-[[(2S)-3-methoxy-2-[(5-methyl-1,2-oxazol-3-yl)carbonylamino]propanoyl]amino]propanoate

> <PUBCHEM_IUPAC_TRADITIONAL_NAME>
(2S)-2-[[(2S)-3-methoxy-2-[(5-methylisoxazole-3-carbonyl)amino]propanoyl]amino]propionic acid benzyl ester

> <PUBCHEM_IUPAC_INCHI>
InChI=1S/C19H23N3O6/c1-12-9-15(22-28-12)17(23)21-16(11-26-3)18(24)20-13(2)19(25)27-10-14-7-5-4-6-8-14/h4-9,13,16H,10-11H2,1-3H3,(H,20,24)(H,21,23)/t13-,16-/m0/s1

> <PUBCHEM_IUPAC_INCHIKEY>
JOGOREIQRMCLII-BBRMVZONSA-N

> <PUBCHEM_XLOGP3_AA>
1.4

> <PUBCHEM_EXACT_MASS>
389.158685

> <PUBCHEM_MOLECULAR_FORMULA>
C19H23N3O6

> <PUBCHEM_MOLECULAR_WEIGHT>
389.4

> <PUBCHEM_OPENEYE_CAN_SMILES>
CC1=CC(=NO1)C(=O)NC(COC)C(=O)NC(C)C(=O)OCC2=CC=CC=C2

> <PUBCHEM_OPENEYE_ISO_SMILES>
CC1=CC(=NO1)C(=O)N[C@@H](COC)C(=O)N[C@@H](C)C(=O)OCC2=CC=CC=C2

> <PUBCHEM_CACTVS_TPSA>
120

> <PUBCHEM_MONOISOTOPIC_WEIGHT>
389.158685

> <PUBCHEM_TOTAL_CHARGE>
0

> <PUBCHEM_HEAVY_ATOM_COUNT>
28

> <PUBCHEM_ATOM_DEF_STEREO_COUNT>
2

> <PUBCHEM_ATOM_UDEF_STEREO_COUNT>
0

> <PUBCHEM_BOND_DEF_STEREO_COUNT>
0

> <PUBCHEM_BOND_UDEF_STEREO_COUNT>
0

> <PUBCHEM_ISOTOPIC_ATOM_COUNT>
0

> <PUBCHEM_COMPONENT_COUNT>
1

> <PUBCHEM_CACTVS_TAUTO_COUNT>
-1

> <PUBCHEM_COORDINATE_TYPE>
1
5
255

> <PUBCHEM_BONDANNOTATIONS>
18  20  8
19  23  8
19  24  8
20  22  8
23  25  8
24  26  8
25  28  8
26  28  8
6  22  8
6  9  8
11  7  5
10  8  6
9  18  8

$$$$
60309979
  -OEChem-02212016592D

 46 47  0     1  0  0  0  0  0999 V2000
    3.7320   -1.4239    0.0000 O   0  0  0  0  0  0  0  0  0  0  0  0
    2.8660    0.0761    0.0000 O   0  0  0  0  0  0  0  0  0  0  0  0
    2.9230    3.1639    0.0000 O   0  0  0  0  0  0  0  0  0  0  0  0
    2.8660    1.0761    0.0000 O   0  0  0  0  0  0  0  0  0  0  0  0
    4.5981    1.0761    0.0000 N   0  0  0  0  0  0  0  0  0  0  0  0
    3.2320    4.1149    0.0000 N   0  0  0  0  0  0  0  0  0  0  0  0
    5.4641   -0.4239    0.0000 C   0  0  0  0  0  0  0  0  0  0  0  0
    6.3301    0.0761    0.0000 C   0  0  0  0  0  0  0  0  0  0  0  0
    4.5981    0.0761    0.0000 C   0  0  1  0  0  0  0  0  0  0  0  0
    7.1962   -0.4239    0.0000 C   0  0  0  0  0  0  0  0  0  0  0  0
    6.3301    1.0761    0.0000 C   0  0  0  0  0  0  0  0  0  0  0  0
    3.7320   -0.4239    0.0000 C   0  0  0  0  0  0  0  0  0  0  0  0
    3.7320    1.5761    0.0000 C   0  0  0  0  0  0  0  0  0  0  0  0
    2.8660   -1.9239    0.0000 C   0  0  0  0  0  0  0  0  0  0  0  0
    3.7320    2.5761    0.0000 C   0  0  0  0  0  0  0  0  0  0  0  0
    2.8660   -2.9239    0.0000 C   0  0  0  0  0  0  0  0  0  0  0  0
    4.5411    3.1639    0.0000 C   0  0  0  0  0  0  0  0  0  0  0  0
    2.0000   -3.4239    0.0000 C   0  0  0  0  0  0  0  0  0  0  0  0
    3.7320   -3.4239    0.0000 C   0  0  0  0  0  0  0  0  0  0  0  0
    4.2320    4.1149    0.0000 C   0  0  0  0  0  0  0  0  0  0  0  0
    2.0000   -4.4239    0.0000 C   0  0  0  0  0  0  0  0  0  0  0  0
    3.7320   -4.4239    0.0000 C   0  0  0  0  0  0  0  0  0  0  0  0
    2.8660   -4.9239    0.0000 C   0  0  0  0  0  0  0  0  0  0  0  0
    4.8198    4.9239    0.0000 C   0  0  0  0  0  0  0  0  0  0  0  0
    5.0656   -0.8989    0.0000 H   0  0  0  0  0  0  0  0  0  0  0  0
    5.8626   -0.8989    0.0000 H   0  0  0  0  0  0  0  0  0  0  0  0
    6.8671    0.3861    0.0000 H   0  0  0  0  0  0  0  0  0  0  0  0
    5.1350    0.3861    0.0000 H   0  0  0  0  0  0  0  0  0  0  0  0
    6.8862   -0.9609    0.0000 H   0  0  0  0  0  0  0  0  0  0  0  0
    7.7331   -0.7339    0.0000 H   0  0  0  0  0  0  0  0  0  0  0  0
    7.5062    0.1130    0.0000 H   0  0  0  0  0  0  0  0  0  0  0  0
    6.9501    1.0761    0.0000 H   0  0  0  0  0  0  0  0  0  0  0  0
    6.3301    1.6961    0.0000 H   0  0  0  0  0  0  0  0  0  0  0  0
    5.7101    1.0761    0.0000 H   0  0  0  0  0  0  0  0  0  0  0  0
    5.1350    1.3861    0.0000 H   0  0  0  0  0  0  0  0  0  0  0  0
    2.6540   -1.3413    0.0000 H   0  0  0  0  0  0  0  0  0  0  0  0
    2.2554   -2.0316    0.0000 H   0  0  0  0  0  0  0  0  0  0  0  0
    5.1307    2.9723    0.0000 H   0  0  0  0  0  0  0  0  0  0  0  0
    1.4631   -3.1139    0.0000 H   0  0  0  0  0  0  0  0  0  0  0  0
    4.2690   -3.1139    0.0000 H   0  0  0  0  0  0  0  0  0  0  0  0
    1.4631   -4.7339    0.0000 H   0  0  0  0  0  0  0  0  0  0  0  0
    4.2690   -4.7339    0.0000 H   0  0  0  0  0  0  0  0  0  0  0  0
    2.8660   -5.5439    0.0000 H   0  0  0  0  0  0  0  0  0  0  0  0
    5.3214    4.5595    0.0000 H   0  0  0  0  0  0  0  0  0  0  0  0
    5.1843    5.4255    0.0000 H   0  0  0  0  0  0  0  0  0  0  0  0
    4.3182    5.2884    0.0000 H   0  0  0  0  0  0  0  0  0  0  0  0
  1 12  1  0  0  0  0
  1 14  1  0  0  0  0
  2 12  2  0  0  0  0
  3  6  1  0  0  0  0
  3 15  1  0  0  0  0
  4 13  2  0  0  0  0
  9  5  1  1  0  0  0
  5 13  1  0  0  0  0
  5 35  1  0  0  0  0
  6 20  2  0  0  0  0
  7  8  1  0  0  0  0
  7  9  1  0  0  0  0
  7 25  1  0  0  0  0
  7 26  1  0  0  0  0
  8 10  1  0  0  0  0
  8 11  1  0  0  0  0
  8 27  1  0  0  0  0
  9 12  1  0  0  0  0
  9 28  1  0  0  0  0
 10 29  1  0  0  0  0
 10 30  1  0  0  0  0
 10 31  1  0  0  0  0
 11 32  1  0  0  0  0
 11 33  1  0  0  0  0
 11 34  1  0  0  0  0
 13 15  1  0  0  0  0
 14 16  1  0  0  0  0
 14 36  1  0  0  0  0
 14 37  1  0  0  0  0
 15 17  2  0  0  0  0
 16 18  2  0  0  0  0
 16 19  1  0  0  0  0
 17 20  1  0  0  0  0
 17 38  1  0  0  0  0
 18 21  1  0  0  0  0
 18 39  1  0  0  0  0
 19 22  2  0  0  0  0
 19 40  1  0  0  0  0
 20 24  1  0  0  0  0
 21 23  2  0  0  0  0
 21 41  1  0  0  0  0
 22 23  1  0  0  0  0
 22 42  1  0  0  0  0
 23 43  1  0  0  0  0
 24 44  1  0  0  0  0
 24 45  1  0  0  0  0
 24 46  1  0  0  0  0
M  END
> <PUBCHEM_COMPOUND_CID>
60309979

> <PUBCHEM_COMPOUND_CANONICALIZED>
1

> <PUBCHEM_CACTVS_COMPLEXITY>
421

> <PUBCHEM_CACTVS_HBOND_ACCEPTOR>
5

> <PUBCHEM_CACTVS_HBOND_DONOR>
1

> <PUBCHEM_CACTVS_ROTATABLE_BOND>
8

> <PUBCHEM_CACTVS_SUBSKEYS>
AAADceB7OAAAAAAAAAAAAAAAAAAAAWAAAAAwAAAAAAAAAAABwAAAHgAUAAAADSzhngYyjJLQBACpA6XyWgKCAAAkIgAomKH+bNoKJjqAtbuHMYhm1hmY6cecwCAOAAAAAAAAAAAAAAAAAAAAAAAAAAAAAA==

> <PUBCHEM_IUPAC_OPENEYE_NAME>
benzyl (2S)-4-methyl-2-[(3-methylisoxazole-5-carbonyl)amino]pentanoate

> <PUBCHEM_IUPAC_CAS_NAME>
(2S)-4-methyl-2-[[(3-methyl-5-isoxazolyl)-oxomethyl]amino]pentanoic acid (phenylmethyl) ester

> <PUBCHEM_IUPAC_NAME_MARKUP>
benzyl (2<I>S</I>)-4-methyl-2-[(3-methyl-1,2-oxazole-5-carbonyl)amino]pentanoate

> <PUBCHEM_IUPAC_NAME>
benzyl (2S)-4-methyl-2-[(3-methyl-1,2-oxazole-5-carbonyl)amino]pentanoate

> <PUBCHEM_IUPAC_SYSTEMATIC_NAME>
(phenylmethyl) (2S)-4-methyl-2-[(3-methyl-1,2-oxazol-5-yl)carbonylamino]pentanoate

> <PUBCHEM_IUPAC_TRADITIONAL_NAME>
(2S)-4-methyl-2-[(3-methylisoxazole-5-carbonyl)amino]valeric acid benzyl ester

> <PUBCHEM_IUPAC_INCHI>
InChI=1S/C18H22N2O4/c1-12(2)9-15(19-17(21)16-10-13(3)20-24-16)18(22)23-11-14-7-5-4-6-8-14/h4-8,10,12,15H,9,11H2,1-3H3,(H,19,21)/t15-/m0/s1

> <PUBCHEM_IUPAC_INCHIKEY>
ZRTQCBHMWFCCPL-HNNXBMFYSA-N

> <PUBCHEM_XLOGP3_AA>
3.5

> <PUBCHEM_EXACT_MASS>
330.157957

> <PUBCHEM_MOLECULAR_FORMULA>
C18H22N2O4

> <PUBCHEM_MOLECULAR_WEIGHT>
330.4

> <PUBCHEM_OPENEYE_CAN_SMILES>
CC1=NOC(=C1)C(=O)NC(CC(C)C)C(=O)OCC2=CC=CC=C2

> <PUBCHEM_OPENEYE_ISO_SMILES>
CC1=NOC(=C1)C(=O)N[C@@H](CC(C)C)C(=O)OCC2=CC=CC=C2

> <PUBCHEM_CACTVS_TPSA>
81.4

> <PUBCHEM_MONOISOTOPIC_WEIGHT>
330.157957

> <PUBCHEM_TOTAL_CHARGE>
0

> <PUBCHEM_HEAVY_ATOM_COUNT>
24

> <PUBCHEM_ATOM_DEF_STEREO_COUNT>
1

> <PUBCHEM_ATOM_UDEF_STEREO_COUNT>
0

> <PUBCHEM_BOND_DEF_STEREO_COUNT>
0

> <PUBCHEM_BOND_UDEF_STEREO_COUNT>
0

> <PUBCHEM_ISOTOPIC_ATOM_COUNT>
0

> <PUBCHEM_COMPONENT_COUNT>
1

> <PUBCHEM_CACTVS_TAUTO_COUNT>
-1

> <PUBCHEM_COORDINATE_TYPE>
1
5
255

> <PUBCHEM_BONDANNOTATIONS>
15  17  8
16  18  8
16  19  8
17  20  8
18  21  8
19  22  8
21  23  8
22  23  8
3  15  8
3  6  8
9  5  5
6  20  8

$$$$
60349670
  -OEChem-02212016592D

 40 41  0     1  0  0  0  0  0999 V2000
    3.4013    3.9397    0.0000 O   0  0  0  0  0  0  0  0  0  0  0  0
    4.9836    3.2352    0.0000 O   0  0  0  0  0  0  0  0  0  0  0  0
    5.6602   -1.2655    0.0000 O   0  0  0  0  0  0  0  0  0  0  0  0
    2.7688    0.3901    0.0000 O   0  0  0  0  0  0  0  0  0  0  0  0
    4.1701    1.4081    0.0000 N   0  0  0  0  0  0  0  0  0  0  0  0
    5.3511   -0.3144    0.0000 N   0  0  0  0  0  0  0  0  0  0  0  0
    2.5878    2.1126    0.0000 C   0  0  0  0  0  0  0  0  0  0  0  0
    3.5823    2.2172    0.0000 C   0  0  1  0  0  0  0  0  0  0  0  0
    2.0000    2.9216    0.0000 C   0  0  0  0  0  0  0  0  0  0  0  0
    2.1810    1.1991    0.0000 C   0  0  0  0  0  0  0  0  0  0  0  0
    3.9890    3.1307    0.0000 C   0  0  0  0  0  0  0  0  0  0  0  0
    3.7634    0.4946    0.0000 C   0  0  0  0  0  0  0  0  0  0  0  0
    4.3511   -0.3144    0.0000 C   0  0  0  0  0  0  0  0  0  0  0  0
    4.0421   -1.2655    0.0000 C   0  0  0  0  0  0  0  0  0  0  0  0
    4.8511   -1.8533    0.0000 C   0  0  0  0  0  0  0  0  0  0  0  0
    4.8511   -2.8533    0.0000 C   0  0  0  0  0  0  0  0  0  0  0  0
    3.8080    4.8533    0.0000 C   0  0  0  0  0  0  0  0  0  0  0  0
    3.9851   -3.3533    0.0000 C   0  0  0  0  0  0  0  0  0  0  0  0
    5.7172   -3.3533    0.0000 C   0  0  0  0  0  0  0  0  0  0  0  0
    3.9851   -4.3533    0.0000 C   0  0  0  0  0  0  0  0  0  0  0  0
    5.7172   -4.3533    0.0000 C   0  0  0  0  0  0  0  0  0  0  0  0
    4.8511   -4.8533    0.0000 C   0  0  0  0  0  0  0  0  0  0  0  0
    2.8400    2.6790    0.0000 H   0  0  0  0  0  0  0  0  0  0  0  0
    3.3301    1.6508    0.0000 H   0  0  0  0  0  0  0  0  0  0  0  0
    2.5016    3.2861    0.0000 H   0  0  0  0  0  0  0  0  0  0  0  0
    1.6356    3.4232    0.0000 H   0  0  0  0  0  0  0  0  0  0  0  0
    1.4984    2.5572    0.0000 H   0  0  0  0  0  0  0  0  0  0  0  0
    1.6146    1.4513    0.0000 H   0  0  0  0  0  0  0  0  0  0  0  0
    1.9289    0.6327    0.0000 H   0  0  0  0  0  0  0  0  0  0  0  0
    2.7474    0.9469    0.0000 H   0  0  0  0  0  0  0  0  0  0  0  0
    4.7867    1.4730    0.0000 H   0  0  0  0  0  0  0  0  0  0  0  0
    3.4525   -1.4571    0.0000 H   0  0  0  0  0  0  0  0  0  0  0  0
    4.3744    4.6011    0.0000 H   0  0  0  0  0  0  0  0  0  0  0  0
    4.0602    5.4197    0.0000 H   0  0  0  0  0  0  0  0  0  0  0  0
    3.2416    5.1054    0.0000 H   0  0  0  0  0  0  0  0  0  0  0  0
    3.4482   -3.0433    0.0000 H   0  0  0  0  0  0  0  0  0  0  0  0
    6.2541   -3.0433    0.0000 H   0  0  0  0  0  0  0  0  0  0  0  0
    3.4482   -4.6633    0.0000 H   0  0  0  0  0  0  0  0  0  0  0  0
    6.2541   -4.6633    0.0000 H   0  0  0  0  0  0  0  0  0  0  0  0
    4.8511   -5.4733    0.0000 H   0  0  0  0  0  0  0  0  0  0  0  0
  1 11  1  0  0  0  0
  1 17  1  0  0  0  0
  2 11  2  0  0  0  0
  3  6  1  0  0  0  0
  3 15  1  0  0  0  0
  4 12  2  0  0  0  0
  8  5  1  1  0  0  0
  5 12  1  0  0  0  0
  5 31  1  0  0  0  0
  6 13  2  0  0  0  0
  7  8  1  0  0  0  0
  7  9  1  0  0  0  0
  7 10  1  0  0  0  0
  7 23  1  0  0  0  0
  8 11  1  0  0  0  0
  8 24  1  0  0  0  0
  9 25  1  0  0  0  0
  9 26  1  0  0  0  0
  9 27  1  0  0  0  0
 10 28  1  0  0  0  0
 10 29  1  0  0  0  0
 10 30  1  0  0  0  0
 12 13  1  0  0  0  0
 13 14  1  0  0  0  0
 14 15  2  0  0  0  0
 14 32  1  0  0  0  0
 15 16  1  0  0  0  0
 16 18  2  0  0  0  0
 16 19  1  0  0  0  0
 17 33  1  0  0  0  0
 17 34  1  0  0  0  0
 17 35  1  0  0  0  0
 18 20  1  0  0  0  0
 18 36  1  0  0  0  0
 19 21  2  0  0  0  0
 19 37  1  0  0  0  0
 20 22  2  0  0  0  0
 20 38  1  0  0  0  0
 21 22  1  0  0  0  0
 21 39  1  0  0  0  0
 22 40  1  0  0  0  0
M  END
> <PUBCHEM_COMPOUND_CID>
60349670

> <PUBCHEM_COMPOUND_CANONICALIZED>
1

> <PUBCHEM_CACTVS_COMPLEXITY>
394

> <PUBCHEM_CACTVS_HBOND_ACCEPTOR>
5

> <PUBCHEM_CACTVS_HBOND_DONOR>
1

> <PUBCHEM_CACTVS_ROTATABLE_BOND>
6

> <PUBCHEM_CACTVS_SUBSKEYS>
AAADceB7OAAAAAAAAAAAAAAAAAAAAWAAAAAwAAAAAAAAAAABwAAAHgAUAAAADSzBngYyjJLQBACpA6XyWgCCAAAmIgAomKG+bNoKZjqAlbOVMYhm1hmYyce/yKCOAAAAAAAAAAAAAAAAAAAAAAAAAAAAAA==

> <PUBCHEM_IUPAC_OPENEYE_NAME>
methyl (2S)-3-methyl-2-[(5-phenylisoxazole-3-carbonyl)amino]butanoate

> <PUBCHEM_IUPAC_CAS_NAME>
(2S)-3-methyl-2-[[oxo-(5-phenyl-3-isoxazolyl)methyl]amino]butanoic acid methyl ester

> <PUBCHEM_IUPAC_NAME_MARKUP>
methyl (2<I>S</I>)-3-methyl-2-[(5-phenyl-1,2-oxazole-3-carbonyl)amino]butanoate

> <PUBCHEM_IUPAC_NAME>
methyl (2S)-3-methyl-2-[(5-phenyl-1,2-oxazole-3-carbonyl)amino]butanoate

> <PUBCHEM_IUPAC_SYSTEMATIC_NAME>
methyl (2S)-3-methyl-2-[(5-phenyl-1,2-oxazol-3-yl)carbonylamino]butanoate

> <PUBCHEM_IUPAC_TRADITIONAL_NAME>
(2S)-3-methyl-2-[(5-phenylisoxazole-3-carbonyl)amino]butyric acid methyl ester

> <PUBCHEM_IUPAC_INCHI>
InChI=1S/C16H18N2O4/c1-10(2)14(16(20)21-3)17-15(19)12-9-13(22-18-12)11-7-5-4-6-8-11/h4-10,14H,1-3H3,(H,17,19)/t14-/m0/s1

> <PUBCHEM_IUPAC_INCHIKEY>
KVPVPPHMMIMILJ-AWEZNQCLSA-N

> <PUBCHEM_XLOGP3_AA>
2.9

> <PUBCHEM_EXACT_MASS>
302.126657

> <PUBCHEM_MOLECULAR_FORMULA>
C16H18N2O4

> <PUBCHEM_MOLECULAR_WEIGHT>
302.32

> <PUBCHEM_OPENEYE_CAN_SMILES>
CC(C)C(C(=O)OC)NC(=O)C1=NOC(=C1)C2=CC=CC=C2

> <PUBCHEM_OPENEYE_ISO_SMILES>
CC(C)[C@@H](C(=O)OC)NC(=O)C1=NOC(=C1)C2=CC=CC=C2

> <PUBCHEM_CACTVS_TPSA>
81.4

> <PUBCHEM_MONOISOTOPIC_WEIGHT>
302.126657

> <PUBCHEM_TOTAL_CHARGE>
0

> <PUBCHEM_HEAVY_ATOM_COUNT>
22

> <PUBCHEM_ATOM_DEF_STEREO_COUNT>
1

> <PUBCHEM_ATOM_UDEF_STEREO_COUNT>
0

> <PUBCHEM_BOND_DEF_STEREO_COUNT>
0

> <PUBCHEM_BOND_UDEF_STEREO_COUNT>
0

> <PUBCHEM_ISOTOPIC_ATOM_COUNT>
0

> <PUBCHEM_COMPONENT_COUNT>
1

> <PUBCHEM_CACTVS_TAUTO_COUNT>
-1

> <PUBCHEM_COORDINATE_TYPE>
1
5
255

> <PUBCHEM_BONDANNOTATIONS>
13  14  8
14  15  8
16  18  8
16  19  8
18  20  8
19  21  8
20  22  8
21  22  8
3  15  8
3  6  8
8  5  5
6  13  8

$$$$
60590341
  -OEChem-02212016592D

 44 46  0     1  0  0  0  0  0999 V2000
    8.2788    3.1012    0.0000 O   0  0  0  0  0  0  0  0  0  0  0  0
    5.4641    1.8988    0.0000 O   0  0  0  0  0  0  0  0  0  0  0  0
    2.8660    0.3988    0.0000 O   0  0  0  0  0  0  0  0  0  0  0  0
    3.7320   -1.1012    0.0000 O   0  0  0  0  0  0  0  0  0  0  0  0
    7.3007    2.8933    0.0000 N   0  0  0  0  0  0  0  0  0  0  0  0
    6.3301    0.3988    0.0000 N   0  0  0  0  0  0  0  0  0  0  0  0
    9.7734    2.1307    0.0000 C   0  0  0  0  0  0  0  0  0  0  0  0
   10.5824    1.5429    0.0000 C   0  0  0  0  0  0  0  0  0  0  0  0
   10.6869    2.5374    0.0000 C   0  0  0  0  0  0  0  0  0  0  0  0
    8.7788    2.2352    0.0000 C   0  0  0  0  0  0  0  0  0  0  0  0
    8.1097    1.4921    0.0000 C   0  0  0  0  0  0  0  0  0  0  0  0
    7.1962    1.8988    0.0000 C   0  0  0  0  0  0  0  0  0  0  0  0
    5.4641   -0.1012    0.0000 C   0  0  3  0  0  0  0  0  0  0  0  0
    6.3301    1.3988    0.0000 C   0  0  0  0  0  0  0  0  0  0  0  0
    4.5981    0.3988    0.0000 C   0  0  0  0  0  0  0  0  0  0  0  0
    5.4641   -1.1012    0.0000 C   0  0  0  0  0  0  0  0  0  0  0  0
    4.5981   -1.6012    0.0000 C   0  0  0  0  0  0  0  0  0  0  0  0
    6.3301   -1.6012    0.0000 C   0  0  0  0  0  0  0  0  0  0  0  0
    3.7320   -0.1012    0.0000 C   0  0  0  0  0  0  0  0  0  0  0  0
    4.5981   -2.6012    0.0000 C   0  0  0  0  0  0  0  0  0  0  0  0
    6.3301   -2.6012    0.0000 C   0  0  0  0  0  0  0  0  0  0  0  0
    5.4641   -3.1012    0.0000 C   0  0  0  0  0  0  0  0  0  0  0  0
    2.8660    1.3988    0.0000 C   0  0  0  0  0  0  0  0  0  0  0  0
    2.0000    1.8988    0.0000 C   0  0  0  0  0  0  0  0  0  0  0  0
    9.6764    2.7430    0.0000 H   0  0  0  0  0  0  0  0  0  0  0  0
   10.3106    0.9856    0.0000 H   0  0  0  0  0  0  0  0  0  0  0  0
   11.1783    1.3720    0.0000 H   0  0  0  0  0  0  0  0  0  0  0  0
   11.3054    2.5806    0.0000 H   0  0  0  0  0  0  0  0  0  0  0  0
   10.5369    3.1390    0.0000 H   0  0  0  0  0  0  0  0  0  0  0  0
    8.2386    0.8856    0.0000 H   0  0  0  0  0  0  0  0  0  0  0  0
    5.4641    0.5188    0.0000 H   0  0  0  0  0  0  0  0  0  0  0  0
    6.8671    0.0888    0.0000 H   0  0  0  0  0  0  0  0  0  0  0  0
    4.9966    0.8737    0.0000 H   0  0  0  0  0  0  0  0  0  0  0  0
    4.1996    0.8737    0.0000 H   0  0  0  0  0  0  0  0  0  0  0  0
    4.0611   -1.2912    0.0000 H   0  0  0  0  0  0  0  0  0  0  0  0
    6.8671   -1.2912    0.0000 H   0  0  0  0  0  0  0  0  0  0  0  0
    4.0611   -2.9112    0.0000 H   0  0  0  0  0  0  0  0  0  0  0  0
    6.8671   -2.9112    0.0000 H   0  0  0  0  0  0  0  0  0  0  0  0
    5.4641   -3.7212    0.0000 H   0  0  0  0  0  0  0  0  0  0  0  0
    3.4766    1.2911    0.0000 H   0  0  0  0  0  0  0  0  0  0  0  0
    3.0781    1.9814    0.0000 H   0  0  0  0  0  0  0  0  0  0  0  0
    2.3100    2.4357    0.0000 H   0  0  0  0  0  0  0  0  0  0  0  0
    1.4631    2.2088    0.0000 H   0  0  0  0  0  0  0  0  0  0  0  0
    1.6900    1.3618    0.0000 H   0  0  0  0  0  0  0  0  0  0  0  0
  1  5  1  0  0  0  0
  1 10  1  0  0  0  0
  2 14  2  0  0  0  0
  3 19  1  0  0  0  0
  3 23  1  0  0  0  0
  4 19  2  0  0  0  0
  5 12  2  0  0  0  0
  6 13  1  0  0  0  0
  6 14  1  0  0  0  0
  6 32  1  0  0  0  0
  7  8  1  0  0  0  0
  7  9  1  0  0  0  0
  7 10  1  0  0  0  0
  7 25  1  0  0  0  0
  8  9  1  0  0  0  0
  8 26  1  0  0  0  0
  8 27  1  0  0  0  0
  9 28  1  0  0  0  0
  9 29  1  0  0  0  0
 10 11  2  0  0  0  0
 11 12  1  0  0  0  0
 11 30  1  0  0  0  0
 12 14  1  0  0  0  0
 13 15  1  0  0  0  0
 13 16  1  0  0  0  0
 13 31  1  0  0  0  0
 15 19  1  0  0  0  0
 15 33  1  0  0  0  0
 15 34  1  0  0  0  0
 16 17  2  0  0  0  0
 16 18  1  0  0  0  0
 17 20  1  0  0  0  0
 17 35  1  0  0  0  0
 18 21  2  0  0  0  0
 18 36  1  0  0  0  0
 20 22  2  0  0  0  0
 20 37  1  0  0  0  0
 21 22  1  0  0  0  0
 21 38  1  0  0  0  0
 22 39  1  0  0  0  0
 23 24  1  0  0  0  0
 23 40  1  0  0  0  0
 23 41  1  0  0  0  0
 24 42  1  0  0  0  0
 24 43  1  0  0  0  0
 24 44  1  0  0  0  0
M  END
> <PUBCHEM_COMPOUND_CID>
60590341

> <PUBCHEM_COMPOUND_CANONICALIZED>
1

> <PUBCHEM_CACTVS_COMPLEXITY>
446

> <PUBCHEM_CACTVS_HBOND_ACCEPTOR>
5

> <PUBCHEM_CACTVS_HBOND_DONOR>
1

> <PUBCHEM_CACTVS_ROTATABLE_BOND>
8

> <PUBCHEM_CACTVS_SUBSKEYS>
AAADceB7OAAAAAAAAAAAAAAAGAAAAWAAAAAwAAAAAAAAAAABwAAAHgAUAAAADSzhngYyjJLQBACpA6XyWgCCAAAmIgAomKG+bNoIZjqAlZOWMYhmlhiIyce/yKCOAAAAAAAAAAAAAAAAAAAAAAAAAAAAAA==

> <PUBCHEM_IUPAC_OPENEYE_NAME>
ethyl 3-[(5-cyclopropylisoxazole-3-carbonyl)amino]-3-phenyl-propanoate

> <PUBCHEM_IUPAC_CAS_NAME>
3-[[(5-cyclopropyl-3-isoxazolyl)-oxomethyl]amino]-3-phenylpropanoic acid ethyl ester

> <PUBCHEM_IUPAC_NAME_MARKUP>
ethyl 3-[(5-cyclopropyl-1,2-oxazole-3-carbonyl)amino]-3-phenylpropanoate

> <PUBCHEM_IUPAC_NAME>
ethyl 3-[(5-cyclopropyl-1,2-oxazole-3-carbonyl)amino]-3-phenylpropanoate

> <PUBCHEM_IUPAC_SYSTEMATIC_NAME>
ethyl 3-[(5-cyclopropyl-1,2-oxazol-3-yl)carbonylamino]-3-phenyl-propanoate

> <PUBCHEM_IUPAC_TRADITIONAL_NAME>
3-[(5-cyclopropylisoxazole-3-carbonyl)amino]-3-phenyl-propionic acid ethyl ester

> <PUBCHEM_IUPAC_INCHI>
InChI=1S/C18H20N2O4/c1-2-23-17(21)11-14(12-6-4-3-5-7-12)19-18(22)15-10-16(24-20-15)13-8-9-13/h3-7,10,13-14H,2,8-9,11H2,1H3,(H,19,22)

> <PUBCHEM_IUPAC_INCHIKEY>
HIKYTKDAWZCDSR-UHFFFAOYSA-N

> <PUBCHEM_XLOGP3_AA>
2.3

> <PUBCHEM_EXACT_MASS>
328.142307

> <PUBCHEM_MOLECULAR_FORMULA>
C18H20N2O4

> <PUBCHEM_MOLECULAR_WEIGHT>
328.4

> <PUBCHEM_OPENEYE_CAN_SMILES>
CCOC(=O)CC(C1=CC=CC=C1)NC(=O)C2=NOC(=C2)C3CC3

> <PUBCHEM_OPENEYE_ISO_SMILES>
CCOC(=O)CC(C1=CC=CC=C1)NC(=O)C2=NOC(=C2)C3CC3

> <PUBCHEM_CACTVS_TPSA>
81.4

> <PUBCHEM_MONOISOTOPIC_WEIGHT>
328.142307

> <PUBCHEM_TOTAL_CHARGE>
0

> <PUBCHEM_HEAVY_ATOM_COUNT>
24

> <PUBCHEM_ATOM_DEF_STEREO_COUNT>
0

> <PUBCHEM_ATOM_UDEF_STEREO_COUNT>
1

> <PUBCHEM_BOND_DEF_STEREO_COUNT>
0

> <PUBCHEM_BOND_UDEF_STEREO_COUNT>
0

> <PUBCHEM_ISOTOPIC_ATOM_COUNT>
0

> <PUBCHEM_COMPONENT_COUNT>
1

> <PUBCHEM_CACTVS_TAUTO_COUNT>
-1

> <PUBCHEM_COORDINATE_TYPE>
1
5
255

> <PUBCHEM_BONDANNOTATIONS>
1  10  8
1  5  8
10  11  8
11  12  8
13  15  3
16  17  8
16  18  8
17  20  8
18  21  8
20  22  8
21  22  8
5  12  8

$$$$
61342950
  -OEChem-02212016592D

 37 38  0     1  0  0  0  0  0999 V2000
    4.3159    3.5352    0.0000 O   0  0  0  0  0  0  0  0  0  0  0  0
    2.0570   -1.6700    0.0000 O   0  0  0  0  0  0  0  0  0  0  0  0
    2.7336    2.8307    0.0000 O   0  0  0  0  0  0  0  0  0  0  0  0
    4.9483   -0.0144    0.0000 O   0  0  0  0  0  0  0  0  0  0  0  0
    3.5471    1.0036    0.0000 N   0  0  0  0  0  0  0  0  0  0  0  0
    2.3660   -0.7189    0.0000 N   0  0  0  0  0  0  0  0  0  0  0  0
    4.1349    1.8126    0.0000 C   0  0  3  0  0  0  0  0  0  0  0  0
    5.1294    1.7081    0.0000 C   0  0  0  0  0  0  0  0  0  0  0  0
    3.7281    2.7262    0.0000 C   0  0  0  0  0  0  0  0  0  0  0  0
    3.9538    0.0901    0.0000 C   0  0  0  0  0  0  0  0  0  0  0  0
    3.3660   -0.7189    0.0000 C   0  0  0  0  0  0  0  0  0  0  0  0
    2.8660   -2.2578    0.0000 C   0  0  0  0  0  0  0  0  0  0  0  0
    2.8660   -3.2578    0.0000 C   0  0  0  0  0  0  0  0  0  0  0  0
    3.6750   -1.6700    0.0000 C   0  0  0  0  0  0  0  0  0  0  0  0
    2.0000   -3.7578    0.0000 C   0  0  0  0  0  0  0  0  0  0  0  0
    3.7320   -3.7578    0.0000 C   0  0  0  0  0  0  0  0  0  0  0  0
    3.9092    4.4488    0.0000 C   0  0  0  0  0  0  0  0  0  0  0  0
    2.0000   -4.7578    0.0000 C   0  0  0  0  0  0  0  0  0  0  0  0
    3.7320   -4.7578    0.0000 C   0  0  0  0  0  0  0  0  0  0  0  0
    2.8660   -5.2578    0.0000 C   0  0  0  0  0  0  0  0  0  0  0  0
    4.4970    5.2578    0.0000 C   0  0  0  0  0  0  0  0  0  0  0  0
    3.5183    1.8775    0.0000 H   0  0  0  0  0  0  0  0  0  0  0  0
    2.9305    1.0684    0.0000 H   0  0  0  0  0  0  0  0  0  0  0  0
    5.0646    1.0915    0.0000 H   0  0  0  0  0  0  0  0  0  0  0  0
    5.7460    1.6433    0.0000 H   0  0  0  0  0  0  0  0  0  0  0  0
    5.1942    2.3247    0.0000 H   0  0  0  0  0  0  0  0  0  0  0  0
    4.2647   -1.8616    0.0000 H   0  0  0  0  0  0  0  0  0  0  0  0
    1.4631   -3.4478    0.0000 H   0  0  0  0  0  0  0  0  0  0  0  0
    4.2690   -3.4478    0.0000 H   0  0  0  0  0  0  0  0  0  0  0  0
    3.4785    4.8948    0.0000 H   0  0  0  0  0  0  0  0  0  0  0  0
    3.3952    4.1021    0.0000 H   0  0  0  0  0  0  0  0  0  0  0  0
    1.4631   -5.0678    0.0000 H   0  0  0  0  0  0  0  0  0  0  0  0
    4.2690   -5.0678    0.0000 H   0  0  0  0  0  0  0  0  0  0  0  0
    2.8660   -5.8778    0.0000 H   0  0  0  0  0  0  0  0  0  0  0  0
    4.9986    4.8934    0.0000 H   0  0  0  0  0  0  0  0  0  0  0  0
    4.8614    5.7594    0.0000 H   0  0  0  0  0  0  0  0  0  0  0  0
    3.9954    5.6222    0.0000 H   0  0  0  0  0  0  0  0  0  0  0  0
  1  9  1  0  0  0  0
  1 17  1  0  0  0  0
  2  6  1  0  0  0  0
  2 12  1  0  0  0  0
  3  9  2  0  0  0  0
  4 10  2  0  0  0  0
  5  7  1  0  0  0  0
  5 10  1  0  0  0  0
  5 23  1  0  0  0  0
  6 11  2  0  0  0  0
  7  8  1  0  0  0  0
  7  9  1  0  0  0  0
  7 22  1  0  0  0  0
  8 24  1  0  0  0  0
  8 25  1  0  0  0  0
  8 26  1  0  0  0  0
 10 11  1  0  0  0  0
 11 14  1  0  0  0  0
 12 13  1  0  0  0  0
 12 14  2  0  0  0  0
 13 15  2  0  0  0  0
 13 16  1  0  0  0  0
 14 27  1  0  0  0  0
 15 18  1  0  0  0  0
 15 28  1  0  0  0  0
 16 19  2  0  0  0  0
 16 29  1  0  0  0  0
 17 21  1  0  0  0  0
 17 30  1  0  0  0  0
 17 31  1  0  0  0  0
 18 20  2  0  0  0  0
 18 32  1  0  0  0  0
 19 20  1  0  0  0  0
 19 33  1  0  0  0  0
 20 34  1  0  0  0  0
 21 35  1  0  0  0  0
 21 36  1  0  0  0  0
 21 37  1  0  0  0  0
M  END
> <PUBCHEM_COMPOUND_CID>
61342950

> <PUBCHEM_COMPOUND_CANONICALIZED>
1

> <PUBCHEM_CACTVS_COMPLEXITY>
369

> <PUBCHEM_CACTVS_HBOND_ACCEPTOR>
5

> <PUBCHEM_CACTVS_HBOND_DONOR>
1

> <PUBCHEM_CACTVS_ROTATABLE_BOND>
6

> <PUBCHEM_CACTVS_SUBSKEYS>
AAADceBzOAAAAAAAAAAAAAAAAAAAAWAAAAAwAAAAAAAAAAABwAAAHgAUAAAADCzhngYyjJLQBACpA6XyWgCCAAAmIgAomKG+bNoKZjqAlbOXMYhm1hmYyce/yKCOAAAAAAAAAAAAAAAAAAAAAAAAAAAAAA==

> <PUBCHEM_IUPAC_OPENEYE_NAME>
ethyl 2-[(5-phenylisoxazole-3-carbonyl)amino]propanoate

> <PUBCHEM_IUPAC_CAS_NAME>
2-[[oxo-(5-phenyl-3-isoxazolyl)methyl]amino]propanoic acid ethyl ester

> <PUBCHEM_IUPAC_NAME_MARKUP>
ethyl 2-[(5-phenyl-1,2-oxazole-3-carbonyl)amino]propanoate

> <PUBCHEM_IUPAC_NAME>
ethyl 2-[(5-phenyl-1,2-oxazole-3-carbonyl)amino]propanoate

> <PUBCHEM_IUPAC_SYSTEMATIC_NAME>
ethyl 2-[(5-phenyl-1,2-oxazol-3-yl)carbonylamino]propanoate

> <PUBCHEM_IUPAC_TRADITIONAL_NAME>
2-[(5-phenylisoxazole-3-carbonyl)amino]propionic acid ethyl ester

> <PUBCHEM_IUPAC_INCHI>
InChI=1S/C15H16N2O4/c1-3-20-15(19)10(2)16-14(18)12-9-13(21-17-12)11-7-5-4-6-8-11/h4-10H,3H2,1-2H3,(H,16,18)

> <PUBCHEM_IUPAC_INCHIKEY>
QDOZEBNEIRQRDN-UHFFFAOYSA-N

> <PUBCHEM_XLOGP3_AA>
2.3

> <PUBCHEM_EXACT_MASS>
288.111007

> <PUBCHEM_MOLECULAR_FORMULA>
C15H16N2O4

> <PUBCHEM_MOLECULAR_WEIGHT>
288.3

> <PUBCHEM_OPENEYE_CAN_SMILES>
CCOC(=O)C(C)NC(=O)C1=NOC(=C1)C2=CC=CC=C2

> <PUBCHEM_OPENEYE_ISO_SMILES>
CCOC(=O)C(C)NC(=O)C1=NOC(=C1)C2=CC=CC=C2

> <PUBCHEM_CACTVS_TPSA>
81.4

> <PUBCHEM_MONOISOTOPIC_WEIGHT>
288.111007

> <PUBCHEM_TOTAL_CHARGE>
0

> <PUBCHEM_HEAVY_ATOM_COUNT>
21

> <PUBCHEM_ATOM_DEF_STEREO_COUNT>
0

> <PUBCHEM_ATOM_UDEF_STEREO_COUNT>
1

> <PUBCHEM_BOND_DEF_STEREO_COUNT>
0

> <PUBCHEM_BOND_UDEF_STEREO_COUNT>
0

> <PUBCHEM_ISOTOPIC_ATOM_COUNT>
0

> <PUBCHEM_COMPONENT_COUNT>
1

> <PUBCHEM_CACTVS_TAUTO_COUNT>
-1

> <PUBCHEM_COORDINATE_TYPE>
1
5
255

> <PUBCHEM_BONDANNOTATIONS>
11  14  8
12  14  8
13  15  8
13  16  8
15  18  8
16  19  8
18  20  8
19  20  8
2  12  8
2  6  8
6  11  8
7  8  3

$$$$
61809103
  -OEChem-02212016592D

 37 38  0     0  0  0  0  0  0999 V2000
    2.0570   -2.1268    0.0000 O   0  0  0  0  0  0  0  0  0  0  0  0
    3.9092    3.9920    0.0000 O   0  0  0  0  0  0  0  0  0  0  0  0
    4.9483   -0.4712    0.0000 O   0  0  0  0  0  0  0  0  0  0  0  0
    5.3104    2.9739    0.0000 O   0  0  0  0  0  0  0  0  0  0  0  0
    3.5471    0.5469    0.0000 N   0  0  0  0  0  0  0  0  0  0  0  0
    2.3660   -1.1757    0.0000 N   0  0  0  0  0  0  0  0  0  0  0  0
    4.1349    1.3559    0.0000 C   0  0  0  0  0  0  0  0  0  0  0  0
    3.7281    2.2694    0.0000 C   0  0  0  0  0  0  0  0  0  0  0  0
    2.8660   -2.7146    0.0000 C   0  0  0  0  0  0  0  0  0  0  0  0
    3.3660   -1.1757    0.0000 C   0  0  0  0  0  0  0  0  0  0  0  0
    2.8660   -3.7146    0.0000 C   0  0  0  0  0  0  0  0  0  0  0  0
    3.9538   -0.3667    0.0000 C   0  0  0  0  0  0  0  0  0  0  0  0
    3.6750   -2.1268    0.0000 C   0  0  0  0  0  0  0  0  0  0  0  0
    4.3159    3.0784    0.0000 C   0  0  0  0  0  0  0  0  0  0  0  0
    2.0000   -4.2146    0.0000 C   0  0  0  0  0  0  0  0  0  0  0  0
    3.7320   -4.2146    0.0000 C   0  0  0  0  0  0  0  0  0  0  0  0
    4.4970    4.8010    0.0000 C   0  0  0  0  0  0  0  0  0  0  0  0
    2.0000   -5.2146    0.0000 C   0  0  0  0  0  0  0  0  0  0  0  0
    3.7320   -5.2146    0.0000 C   0  0  0  0  0  0  0  0  0  0  0  0
    2.8660   -5.7146    0.0000 C   0  0  0  0  0  0  0  0  0  0  0  0
    4.0902    5.7146    0.0000 C   0  0  0  0  0  0  0  0  0  0  0  0
    4.5656    0.9099    0.0000 H   0  0  0  0  0  0  0  0  0  0  0  0
    4.6489    1.7026    0.0000 H   0  0  0  0  0  0  0  0  0  0  0  0
    3.2974    2.7154    0.0000 H   0  0  0  0  0  0  0  0  0  0  0  0
    3.2141    1.9227    0.0000 H   0  0  0  0  0  0  0  0  0  0  0  0
    2.9305    0.6117    0.0000 H   0  0  0  0  0  0  0  0  0  0  0  0
    4.2647   -2.3184    0.0000 H   0  0  0  0  0  0  0  0  0  0  0  0
    1.4631   -3.9046    0.0000 H   0  0  0  0  0  0  0  0  0  0  0  0
    4.2690   -3.9046    0.0000 H   0  0  0  0  0  0  0  0  0  0  0  0
    4.9276    4.3550    0.0000 H   0  0  0  0  0  0  0  0  0  0  0  0
    5.0110    5.1477    0.0000 H   0  0  0  0  0  0  0  0  0  0  0  0
    1.4631   -5.5245    0.0000 H   0  0  0  0  0  0  0  0  0  0  0  0
    4.2690   -5.5245    0.0000 H   0  0  0  0  0  0  0  0  0  0  0  0
    2.8660   -6.3346    0.0000 H   0  0  0  0  0  0  0  0  0  0  0  0
    4.6566    5.9667    0.0000 H   0  0  0  0  0  0  0  0  0  0  0  0
    3.8380    6.2809    0.0000 H   0  0  0  0  0  0  0  0  0  0  0  0
    3.5238    5.4624    0.0000 H   0  0  0  0  0  0  0  0  0  0  0  0
  1  6  1  0  0  0  0
  1  9  1  0  0  0  0
  2 14  1  0  0  0  0
  2 17  1  0  0  0  0
  3 12  2  0  0  0  0
  4 14  2  0  0  0  0
  5  7  1  0  0  0  0
  5 12  1  0  0  0  0
  5 26  1  0  0  0  0
  6 10  2  0  0  0  0
  7  8  1  0  0  0  0
  7 22  1  0  0  0  0
  7 23  1  0  0  0  0
  8 14  1  0  0  0  0
  8 24  1  0  0  0  0
  8 25  1  0  0  0  0
  9 11  1  0  0  0  0
  9 13  2  0  0  0  0
 10 12  1  0  0  0  0
 10 13  1  0  0  0  0
 11 15  2  0  0  0  0
 11 16  1  0  0  0  0
 13 27  1  0  0  0  0
 15 18  1  0  0  0  0
 15 28  1  0  0  0  0
 16 19  2  0  0  0  0
 16 29  1  0  0  0  0
 17 21  1  0  0  0  0
 17 30  1  0  0  0  0
 17 31  1  0  0  0  0
 18 20  2  0  0  0  0
 18 32  1  0  0  0  0
 19 20  1  0  0  0  0
 19 33  1  0  0  0  0
 20 34  1  0  0  0  0
 21 35  1  0  0  0  0
 21 36  1  0  0  0  0
 21 37  1  0  0  0  0
M  END
> <PUBCHEM_COMPOUND_CID>
61809103

> <PUBCHEM_COMPOUND_CANONICALIZED>
1

> <PUBCHEM_CACTVS_COMPLEXITY>
356

> <PUBCHEM_CACTVS_HBOND_ACCEPTOR>
5

> <PUBCHEM_CACTVS_HBOND_DONOR>
1

> <PUBCHEM_CACTVS_ROTATABLE_BOND>
7

> <PUBCHEM_CACTVS_SUBSKEYS>
AAADceBzOAAAAAAAAAAAAAAAAAAAAWAAAAAwAAAAAAAAAAABwAAAHgAUAAAADAzhngYyjJLQBACpA6XyWgCCAAAmIgAomKG+bNoIZjqAlZOWMYhm1hmIyce/yKCOAAAAAAAAAAAAAAAAAAAAAAAAAAAAAA==

> <PUBCHEM_IUPAC_OPENEYE_NAME>
ethyl 3-[(5-phenylisoxazole-3-carbonyl)amino]propanoate

> <PUBCHEM_IUPAC_CAS_NAME>
3-[[oxo-(5-phenyl-3-isoxazolyl)methyl]amino]propanoic acid ethyl ester

> <PUBCHEM_IUPAC_NAME_MARKUP>
ethyl 3-[(5-phenyl-1,2-oxazole-3-carbonyl)amino]propanoate

> <PUBCHEM_IUPAC_NAME>
ethyl 3-[(5-phenyl-1,2-oxazole-3-carbonyl)amino]propanoate

> <PUBCHEM_IUPAC_SYSTEMATIC_NAME>
ethyl 3-[(5-phenyl-1,2-oxazol-3-yl)carbonylamino]propanoate

> <PUBCHEM_IUPAC_TRADITIONAL_NAME>
3-[(5-phenylisoxazole-3-carbonyl)amino]propionic acid ethyl ester

> <PUBCHEM_IUPAC_INCHI>
InChI=1S/C15H16N2O4/c1-2-20-14(18)8-9-16-15(19)12-10-13(21-17-12)11-6-4-3-5-7-11/h3-7,10H,2,8-9H2,1H3,(H,16,19)

> <PUBCHEM_IUPAC_INCHIKEY>
MBEWFXFQQGHFJV-UHFFFAOYSA-N

> <PUBCHEM_XLOGP3_AA>
1.8

> <PUBCHEM_EXACT_MASS>
288.111007

> <PUBCHEM_MOLECULAR_FORMULA>
C15H16N2O4

> <PUBCHEM_MOLECULAR_WEIGHT>
288.3

> <PUBCHEM_OPENEYE_CAN_SMILES>
CCOC(=O)CCNC(=O)C1=NOC(=C1)C2=CC=CC=C2

> <PUBCHEM_OPENEYE_ISO_SMILES>
CCOC(=O)CCNC(=O)C1=NOC(=C1)C2=CC=CC=C2

> <PUBCHEM_CACTVS_TPSA>
81.4

> <PUBCHEM_MONOISOTOPIC_WEIGHT>
288.111007

> <PUBCHEM_TOTAL_CHARGE>
0

> <PUBCHEM_HEAVY_ATOM_COUNT>
21

> <PUBCHEM_ATOM_DEF_STEREO_COUNT>
0

> <PUBCHEM_ATOM_UDEF_STEREO_COUNT>
0

> <PUBCHEM_BOND_DEF_STEREO_COUNT>
0

> <PUBCHEM_BOND_UDEF_STEREO_COUNT>
0

> <PUBCHEM_ISOTOPIC_ATOM_COUNT>
0

> <PUBCHEM_COMPONENT_COUNT>
1

> <PUBCHEM_CACTVS_TAUTO_COUNT>
-1

> <PUBCHEM_COORDINATE_TYPE>
1
5
255

> <PUBCHEM_BONDANNOTATIONS>
1  6  8
1  9  8
10  13  8
11  15  8
11  16  8
15  18  8
16  19  8
18  20  8
19  20  8
6  10  8
9  13  8

$$$$
68012547
  -OEChem-02212016592D

 82 84  0     1  0  0  0  0  0999 V2000
    5.4641   -5.2702    0.0000 F   0  0  0  0  0  0  0  0  0  0  0  0
    8.0902    3.5086    0.0000 O   0  0  0  0  0  0  0  0  0  0  0  0
    7.1962    0.7298    0.0000 O   0  0  0  0  0  0  0  0  0  0  0  0
    8.0622    0.2298    0.0000 O   0  0  0  0  0  0  0  0  0  0  0  0
    2.8660    3.2298    0.0000 O   0  0  0  0  0  0  0  0  0  0  0  0
   10.6603   -2.2702    0.0000 O   0  0  0  0  0  0  0  0  0  0  0  0
    2.0000    1.7298    0.0000 O   0  0  0  0  0  0  0  0  0  0  0  0
   12.6090    0.4322    0.0000 O   0  0  0  0  0  0  0  0  0  0  0  0
    6.8301    4.7686    0.0000 N   0  0  0  0  0  0  0  0  0  0  0  0
    5.4641    0.7298    0.0000 N   0  0  0  0  0  0  0  0  0  0  0  0
    9.7942   -0.7702    0.0000 N   0  0  0  0  0  0  0  0  0  0  0  0
   11.6308    0.2243    0.0000 N   0  0  0  0  0  0  0  0  0  0  0  0
    6.3301    3.2298    0.0000 C   0  0  3  0  0  0  0  0  0  0  0  0
    6.3301    2.2298    0.0000 C   0  0  0  0  0  0  0  0  0  0  0  0
    5.5211    3.8176    0.0000 C   0  0  0  0  0  0  0  0  0  0  0  0
    5.4641    1.7298    0.0000 C   0  0  1  0  0  0  0  0  0  0  0  0
    5.8301    4.7686    0.0000 C   0  0  0  0  0  0  0  0  0  0  0  0
    7.1391    3.8176    0.0000 C   0  0  0  0  0  0  0  0  0  0  0  0
    6.3301   -0.7702    0.0000 C   0  0  1  0  0  0  0  0  0  0  0  0
    7.1962   -1.2702    0.0000 C   0  0  0  0  0  0  0  0  0  0  0  0
    6.3301    0.2298    0.0000 C   0  0  0  0  0  0  0  0  0  0  0  0
    8.9282   -1.2702    0.0000 C   0  0  1  0  0  0  0  0  0  0  0  0
    5.4641   -1.2702    0.0000 C   0  0  0  0  0  0  0  0  0  0  0  0
    8.9282   -2.2702    0.0000 C   0  0  0  0  0  0  0  0  0  0  0  0
    8.0622   -0.7702    0.0000 C   0  0  0  0  0  0  0  0  0  0  0  0
    4.5981    2.2298    0.0000 C   0  0  0  0  0  0  0  0  0  0  0  0
    5.4641   -2.2702    0.0000 C   0  0  0  0  0  0  0  0  0  0  0  0
    9.7942   -2.7702    0.0000 C   0  0  0  0  0  0  0  0  0  0  0  0
    8.0622   -2.7702    0.0000 C   0  0  0  0  0  0  0  0  0  0  0  0
    3.7320    1.7298    0.0000 C   0  0  0  0  0  0  0  0  0  0  0  0
    6.3301   -2.7702    0.0000 C   0  0  0  0  0  0  0  0  0  0  0  0
    4.5981   -2.7702    0.0000 C   0  0  0  0  0  0  0  0  0  0  0  0
   10.6603   -1.2702    0.0000 C   0  0  0  0  0  0  0  0  0  0  0  0
    2.8660    2.2298    0.0000 C   0  0  0  0  0  0  0  0  0  0  0  0
    6.3301   -3.7702    0.0000 C   0  0  0  0  0  0  0  0  0  0  0  0
    4.5981   -3.7702    0.0000 C   0  0  0  0  0  0  0  0  0  0  0  0
   11.5263   -0.7702    0.0000 C   0  0  0  0  0  0  0  0  0  0  0  0
    5.4641   -4.2702    0.0000 C   0  0  0  0  0  0  0  0  0  0  0  0
   12.4398   -1.1770    0.0000 C   0  0  0  0  0  0  0  0  0  0  0  0
   13.1090   -0.4338    0.0000 C   0  0  0  0  0  0  0  0  0  0  0  0
    2.0000    3.7298    0.0000 C   0  0  0  0  0  0  0  0  0  0  0  0
   14.1035   -0.5383    0.0000 C   0  0  0  0  0  0  0  0  0  0  0  0
    2.0000    4.7298    0.0000 C   0  0  0  0  0  0  0  0  0  0  0  0
    6.8826    2.9483    0.0000 H   0  0  0  0  0  0  0  0  0  0  0  0
    6.5422    1.6472    0.0000 H   0  0  0  0  0  0  0  0  0  0  0  0
    6.9407    2.3374    0.0000 H   0  0  0  0  0  0  0  0  0  0  0  0
    4.9547    4.0698    0.0000 H   0  0  0  0  0  0  0  0  0  0  0  0
    5.2111    3.2806    0.0000 H   0  0  0  0  0  0  0  0  0  0  0  0
    6.0010    1.4198    0.0000 H   0  0  0  0  0  0  0  0  0  0  0  0
    5.8949    5.3852    0.0000 H   0  0  0  0  0  0  0  0  0  0  0  0
    5.2237    4.8975    0.0000 H   0  0  0  0  0  0  0  0  0  0  0  0
    6.8671   -0.4602    0.0000 H   0  0  0  0  0  0  0  0  0  0  0  0
    7.1946    5.2702    0.0000 H   0  0  0  0  0  0  0  0  0  0  0  0
    4.9272    0.4198    0.0000 H   0  0  0  0  0  0  0  0  0  0  0  0
    6.7976   -1.7452    0.0000 H   0  0  0  0  0  0  0  0  0  0  0  0
    7.5947   -1.7452    0.0000 H   0  0  0  0  0  0  0  0  0  0  0  0
    8.9282   -0.6502    0.0000 H   0  0  0  0  0  0  0  0  0  0  0  0
    5.2520   -0.6876    0.0000 H   0  0  0  0  0  0  0  0  0  0  0  0
    4.8535   -1.3779    0.0000 H   0  0  0  0  0  0  0  0  0  0  0  0
    9.4651   -1.9602    0.0000 H   0  0  0  0  0  0  0  0  0  0  0  0
    4.5981    2.8498    0.0000 H   0  0  0  0  0  0  0  0  0  0  0  0
    9.7942   -0.1502    0.0000 H   0  0  0  0  0  0  0  0  0  0  0  0
    9.4842   -3.3072    0.0000 H   0  0  0  0  0  0  0  0  0  0  0  0
   10.3312   -3.0802    0.0000 H   0  0  0  0  0  0  0  0  0  0  0  0
   10.1042   -2.2333    0.0000 H   0  0  0  0  0  0  0  0  0  0  0  0
    7.7522   -2.2333    0.0000 H   0  0  0  0  0  0  0  0  0  0  0  0
    7.5252   -3.0802    0.0000 H   0  0  0  0  0  0  0  0  0  0  0  0
    8.3722   -3.3072    0.0000 H   0  0  0  0  0  0  0  0  0  0  0  0
    3.7320    1.1098    0.0000 H   0  0  0  0  0  0  0  0  0  0  0  0
    6.8671   -2.4602    0.0000 H   0  0  0  0  0  0  0  0  0  0  0  0
    4.0611   -2.4602    0.0000 H   0  0  0  0  0  0  0  0  0  0  0  0
    6.8671   -4.0802    0.0000 H   0  0  0  0  0  0  0  0  0  0  0  0
    4.0611   -4.0802    0.0000 H   0  0  0  0  0  0  0  0  0  0  0  0
   12.5687   -1.7834    0.0000 H   0  0  0  0  0  0  0  0  0  0  0  0
    1.3894    3.8374    0.0000 H   0  0  0  0  0  0  0  0  0  0  0  0
    1.7880    3.1472    0.0000 H   0  0  0  0  0  0  0  0  0  0  0  0
   14.0387   -1.1549    0.0000 H   0  0  0  0  0  0  0  0  0  0  0  0
   14.7201   -0.6031    0.0000 H   0  0  0  0  0  0  0  0  0  0  0  0
   14.1683    0.0783    0.0000 H   0  0  0  0  0  0  0  0  0  0  0  0
    2.6200    4.7298    0.0000 H   0  0  0  0  0  0  0  0  0  0  0  0
    2.0000    5.3498    0.0000 H   0  0  0  0  0  0  0  0  0  0  0  0
    1.3800    4.7298    0.0000 H   0  0  0  0  0  0  0  0  0  0  0  0
  1 38  1  0  0  0  0
  2 18  2  0  0  0  0
  3 21  2  0  0  0  0
  4 25  2  0  0  0  0
  5 34  1  0  0  0  0
  5 41  1  0  0  0  0
  6 33  2  0  0  0  0
  7 34  2  0  0  0  0
  8 12  1  0  0  0  0
  8 40  1  0  0  0  0
  9 17  1  0  0  0  0
  9 18  1  0  0  0  0
  9 53  1  0  0  0  0
 16 10  1  6  0  0  0
 10 21  1  0  0  0  0
 10 54  1  0  0  0  0
 22 11  1  1  0  0  0
 11 33  1  0  0  0  0
 11 62  1  0  0  0  0
 12 37  2  0  0  0  0
 13 14  1  0  0  0  0
 13 15  1  0  0  0  0
 13 18  1  0  0  0  0
 13 44  1  0  0  0  0
 14 16  1  0  0  0  0
 14 45  1  0  0  0  0
 14 46  1  0  0  0  0
 15 17  1  0  0  0  0
 15 47  1  0  0  0  0
 15 48  1  0  0  0  0
 16 26  1  0  0  0  0
 16 49  1  0  0  0  0
 17 50  1  0  0  0  0
 17 51  1  0  0  0  0
 19 20  1  6  0  0  0
 19 21  1  0  0  0  0
 19 23  1  0  0  0  0
 19 52  1  0  0  0  0
 20 25  1  0  0  0  0
 20 55  1  0  0  0  0
 20 56  1  0  0  0  0
 22 24  1  0  0  0  0
 22 25  1  0  0  0  0
 22 57  1  0  0  0  0
 23 27  1  0  0  0  0
 23 58  1  0  0  0  0
 23 59  1  0  0  0  0
 24 28  1  0  0  0  0
 24 29  1  0  0  0  0
 24 60  1  0  0  0  0
 26 30  2  0  0  0  0
 26 61  1  0  0  0  0
 27 31  2  0  0  0  0
 27 32  1  0  0  0  0
 28 63  1  0  0  0  0
 28 64  1  0  0  0  0
 28 65  1  0  0  0  0
 29 66  1  0  0  0  0
 29 67  1  0  0  0  0
 29 68  1  0  0  0  0
 30 34  1  0  0  0  0
 30 69  1  0  0  0  0
 31 35  1  0  0  0  0
 31 70  1  0  0  0  0
 32 36  2  0  0  0  0
 32 71  1  0  0  0  0
 33 37  1  0  0  0  0
 35 38  2  0  0  0  0
 35 72  1  0  0  0  0
 36 38  1  0  0  0  0
 36 73  1  0  0  0  0
 37 39  1  0  0  0  0
 39 40  2  0  0  0  0
 39 74  1  0  0  0  0
 40 42  1  0  0  0  0
 41 43  1  0  0  0  0
 41 75  1  0  0  0  0
 41 76  1  0  0  0  0
 42 77  1  0  0  0  0
 42 78  1  0  0  0  0
 42 79  1  0  0  0  0
 43 80  1  0  0  0  0
 43 81  1  0  0  0  0
 43 82  1  0  0  0  0
M  END
> <PUBCHEM_COMPOUND_CID>
68012547

> <PUBCHEM_COMPOUND_CANONICALIZED>
1

> <PUBCHEM_CACTVS_COMPLEXITY>
1010

> <PUBCHEM_CACTVS_HBOND_ACCEPTOR>
9

> <PUBCHEM_CACTVS_HBOND_DONOR>
3

> <PUBCHEM_CACTVS_ROTATABLE_BOND>
16

> <PUBCHEM_CACTVS_SUBSKEYS>
AAADcfB7uQAAAAAAAAAAAAAAAAAAAWLAAAAwAAAAAAAAAAABwAAAHwAUAAAADSzhng4yjJLQBACpA6XyWgCCAAAmIgAomKG+bNoIZjqAtbOWMYhmlhiI6cc/icCeAAAAAAAAAAAAAAAAAAAAAAAAAAAAAA==

> <PUBCHEM_IUPAC_OPENEYE_NAME>
ethyl (E,4S)-4-[[(2S,5S)-2-[(4-fluorophenyl)methyl]-6-methyl-5-[(5-methylisoxazole-3-carbonyl)amino]-4-oxo-heptanoyl]amino]-5-(2-oxopyrrolidin-3-yl)pent-2-enoate

> <PUBCHEM_IUPAC_CAS_NAME>
(E,4S)-4-[[(2S,5S)-2-[(4-fluorophenyl)methyl]-6-methyl-5-[[(5-methyl-3-isoxazolyl)-oxomethyl]amino]-1,4-dioxoheptyl]amino]-5-(2-oxo-3-pyrrolidinyl)-2-pentenoic acid ethyl ester

> <PUBCHEM_IUPAC_NAME_MARKUP>
ethyl (<I>E</I>,4<I>S</I>)-4-[[(2<I>S</I>,5<I>S</I>)-2-[(4-fluorophenyl)methyl]-6-methyl-5-[(5-methyl-1,2-oxazole-3-carbonyl)amino]-4-oxoheptanoyl]amino]-5-(2-oxopyrrolidin-3-yl)pent-2-enoate

> <PUBCHEM_IUPAC_NAME>
ethyl (E,4S)-4-[[(2S,5S)-2-[(4-fluorophenyl)methyl]-6-methyl-5-[(5-methyl-1,2-oxazole-3-carbonyl)amino]-4-oxoheptanoyl]amino]-5-(2-oxopyrrolidin-3-yl)pent-2-enoate

> <PUBCHEM_IUPAC_SYSTEMATIC_NAME>
ethyl (E,4S)-4-[[(2S,5S)-2-[(4-fluorophenyl)methyl]-6-methyl-5-[(5-methyl-1,2-oxazol-3-yl)carbonylamino]-4-oxidanylidene-heptanoyl]amino]-5-(2-oxidanylidenepyrrolidin-3-yl)pent-2-enoate

> <PUBCHEM_IUPAC_TRADITIONAL_NAME>
(E,4S)-4-[[(2S,5S)-2-(4-fluorobenzyl)-4-keto-6-methyl-5-[(5-methylisoxazole-3-carbonyl)amino]heptanoyl]amino]-5-(2-ketopyrrolidin-3-yl)pent-2-enoic acid ethyl ester

> <PUBCHEM_IUPAC_INCHI>
InChI=1S/C31H39FN4O7/c1-5-42-27(38)11-10-24(16-21-12-13-33-29(21)39)34-30(40)22(15-20-6-8-23(32)9-7-20)17-26(37)28(18(2)3)35-31(41)25-14-19(4)43-36-25/h6-11,14,18,21-22,24,28H,5,12-13,15-17H2,1-4H3,(H,33,39)(H,34,40)(H,35,41)/b11-10+/t21?,22-,24+,28-/m0/s1

> <PUBCHEM_IUPAC_INCHIKEY>
CAYJBRBGZBCZKO-XNCGWURQSA-N

> <PUBCHEM_XLOGP3_AA>
3.1

> <PUBCHEM_EXACT_MASS>
598.280278

> <PUBCHEM_MOLECULAR_FORMULA>
C31H39FN4O7

> <PUBCHEM_MOLECULAR_WEIGHT>
598.7

> <PUBCHEM_OPENEYE_CAN_SMILES>
CCOC(=O)C=CC(CC1CCNC1=O)NC(=O)C(CC2=CC=C(C=C2)F)CC(=O)C(C(C)C)NC(=O)C3=NOC(=C3)C

> <PUBCHEM_OPENEYE_ISO_SMILES>
CCOC(=O)/C=C/[C@H](CC1CCNC1=O)NC(=O)[C@@H](CC2=CC=C(C=C2)F)CC(=O)[C@H](C(C)C)NC(=O)C3=NOC(=C3)C

> <PUBCHEM_CACTVS_TPSA>
157

> <PUBCHEM_MONOISOTOPIC_WEIGHT>
598.280278

> <PUBCHEM_TOTAL_CHARGE>
0

> <PUBCHEM_HEAVY_ATOM_COUNT>
43

> <PUBCHEM_ATOM_DEF_STEREO_COUNT>
3

> <PUBCHEM_ATOM_UDEF_STEREO_COUNT>
1

> <PUBCHEM_BOND_DEF_STEREO_COUNT>
1

> <PUBCHEM_BOND_UDEF_STEREO_COUNT>
0

> <PUBCHEM_ISOTOPIC_ATOM_COUNT>
0

> <PUBCHEM_COMPONENT_COUNT>
1

> <PUBCHEM_CACTVS_TAUTO_COUNT>
-1

> <PUBCHEM_COORDINATE_TYPE>
1
5
255

> <PUBCHEM_BONDANNOTATIONS>
16  10  6
22  11  5
12  37  8
13  14  3
19  20  6
27  31  8
27  32  8
31  35  8
32  36  8
35  38  8
36  38  8
37  39  8
39  40  8
8  12  8
8  40  8

$$$$
69866278
  -OEChem-02212016592D

 82 84  0     1  0  0  0  0  0999 V2000
    4.6261   -5.2702    0.0000 F   0  0  0  0  0  0  0  0  0  0  0  0
    2.0000    3.5086    0.0000 O   0  0  0  0  0  0  0  0  0  0  0  0
    6.3582    0.7298    0.0000 O   0  0  0  0  0  0  0  0  0  0  0  0
    7.2242    0.2298    0.0000 O   0  0  0  0  0  0  0  0  0  0  0  0
    7.2242    3.2298    0.0000 O   0  0  0  0  0  0  0  0  0  0  0  0
    9.8222   -2.2702    0.0000 O   0  0  0  0  0  0  0  0  0  0  0  0
    6.3582    4.7298    0.0000 O   0  0  0  0  0  0  0  0  0  0  0  0
   12.2710   -0.4338    0.0000 O   0  0  0  0  0  0  0  0  0  0  0  0
    3.2601    4.7686    0.0000 N   0  0  0  0  0  0  0  0  0  0  0  0
    4.6261    0.7298    0.0000 N   0  0  0  0  0  0  0  0  0  0  0  0
    8.9562   -0.7702    0.0000 N   0  0  0  0  0  0  0  0  0  0  0  0
   11.6018   -1.1770    0.0000 N   0  0  0  0  0  0  0  0  0  0  0  0
    3.7601    3.2298    0.0000 C   0  0  3  0  0  0  0  0  0  0  0  0
    3.7601    2.2298    0.0000 C   0  0  0  0  0  0  0  0  0  0  0  0
    4.5691    3.8176    0.0000 C   0  0  0  0  0  0  0  0  0  0  0  0
    4.6261    1.7298    0.0000 C   0  0  3  0  0  0  0  0  0  0  0  0
    4.2601    4.7686    0.0000 C   0  0  0  0  0  0  0  0  0  0  0  0
    2.9511    3.8176    0.0000 C   0  0  0  0  0  0  0  0  0  0  0  0
    5.4921   -0.7702    0.0000 C   0  0  3  0  0  0  0  0  0  0  0  0
    6.3582   -1.2702    0.0000 C   0  0  0  0  0  0  0  0  0  0  0  0
    5.4921    0.2298    0.0000 C   0  0  0  0  0  0  0  0  0  0  0  0
    8.0902   -1.2702    0.0000 C   0  0  3  0  0  0  0  0  0  0  0  0
    4.6261   -1.2702    0.0000 C   0  0  0  0  0  0  0  0  0  0  0  0
    8.0902   -2.2702    0.0000 C   0  0  0  0  0  0  0  0  0  0  0  0
    7.2242   -0.7702    0.0000 C   0  0  0  0  0  0  0  0  0  0  0  0
    5.4921    2.2298    0.0000 C   0  0  0  0  0  0  0  0  0  0  0  0
    4.6261   -2.2702    0.0000 C   0  0  0  0  0  0  0  0  0  0  0  0
    8.9562   -2.7702    0.0000 C   0  0  0  0  0  0  0  0  0  0  0  0
    7.2242   -2.7702    0.0000 C   0  0  0  0  0  0  0  0  0  0  0  0
    5.4921    3.2298    0.0000 C   0  0  0  0  0  0  0  0  0  0  0  0
    5.4921   -2.7702    0.0000 C   0  0  0  0  0  0  0  0  0  0  0  0
    3.7601   -2.7702    0.0000 C   0  0  0  0  0  0  0  0  0  0  0  0
    9.8222   -1.2702    0.0000 C   0  0  0  0  0  0  0  0  0  0  0  0
    6.3582    3.7298    0.0000 C   0  0  0  0  0  0  0  0  0  0  0  0
    5.4921   -3.7702    0.0000 C   0  0  0  0  0  0  0  0  0  0  0  0
    3.7601   -3.7702    0.0000 C   0  0  0  0  0  0  0  0  0  0  0  0
   10.6883   -0.7702    0.0000 C   0  0  0  0  0  0  0  0  0  0  0  0
    4.6261   -4.2702    0.0000 C   0  0  0  0  0  0  0  0  0  0  0  0
   10.7928    0.2243    0.0000 C   0  0  0  0  0  0  0  0  0  0  0  0
   11.7710    0.4322    0.0000 C   0  0  0  0  0  0  0  0  0  0  0  0
    8.0902    3.7298    0.0000 C   0  0  0  0  0  0  0  0  0  0  0  0
   12.1777    1.3458    0.0000 C   0  0  0  0  0  0  0  0  0  0  0  0
    8.9562    3.2298    0.0000 C   0  0  0  0  0  0  0  0  0  0  0  0
    4.3125    2.9483    0.0000 H   0  0  0  0  0  0  0  0  0  0  0  0
    3.1495    2.3374    0.0000 H   0  0  0  0  0  0  0  0  0  0  0  0
    3.5480    1.6472    0.0000 H   0  0  0  0  0  0  0  0  0  0  0  0
    4.8791    3.2806    0.0000 H   0  0  0  0  0  0  0  0  0  0  0  0
    5.1355    4.0698    0.0000 H   0  0  0  0  0  0  0  0  0  0  0  0
    5.1630    1.4198    0.0000 H   0  0  0  0  0  0  0  0  0  0  0  0
    4.8665    4.8975    0.0000 H   0  0  0  0  0  0  0  0  0  0  0  0
    4.1953    5.3852    0.0000 H   0  0  0  0  0  0  0  0  0  0  0  0
    4.9552   -0.4602    0.0000 H   0  0  0  0  0  0  0  0  0  0  0  0
    2.8956    5.2702    0.0000 H   0  0  0  0  0  0  0  0  0  0  0  0
    5.9596   -1.7452    0.0000 H   0  0  0  0  0  0  0  0  0  0  0  0
    6.7567   -1.7452    0.0000 H   0  0  0  0  0  0  0  0  0  0  0  0
    4.0892    0.4198    0.0000 H   0  0  0  0  0  0  0  0  0  0  0  0
    8.0902   -0.6502    0.0000 H   0  0  0  0  0  0  0  0  0  0  0  0
    4.4140   -0.6876    0.0000 H   0  0  0  0  0  0  0  0  0  0  0  0
    4.0155   -1.3779    0.0000 H   0  0  0  0  0  0  0  0  0  0  0  0
    8.0902   -2.8902    0.0000 H   0  0  0  0  0  0  0  0  0  0  0  0
    6.0291    1.9198    0.0000 H   0  0  0  0  0  0  0  0  0  0  0  0
    8.9562   -0.1502    0.0000 H   0  0  0  0  0  0  0  0  0  0  0  0
    8.6462   -3.3072    0.0000 H   0  0  0  0  0  0  0  0  0  0  0  0
    9.4932   -3.0802    0.0000 H   0  0  0  0  0  0  0  0  0  0  0  0
    9.2662   -2.2333    0.0000 H   0  0  0  0  0  0  0  0  0  0  0  0
    6.9142   -2.2333    0.0000 H   0  0  0  0  0  0  0  0  0  0  0  0
    6.6872   -3.0802    0.0000 H   0  0  0  0  0  0  0  0  0  0  0  0
    7.5342   -3.3072    0.0000 H   0  0  0  0  0  0  0  0  0  0  0  0
    4.9552    3.5398    0.0000 H   0  0  0  0  0  0  0  0  0  0  0  0
    6.0291   -2.4602    0.0000 H   0  0  0  0  0  0  0  0  0  0  0  0
    3.2231   -2.4602    0.0000 H   0  0  0  0  0  0  0  0  0  0  0  0
    6.0291   -4.0802    0.0000 H   0  0  0  0  0  0  0  0  0  0  0  0
    3.2231   -4.0802    0.0000 H   0  0  0  0  0  0  0  0  0  0  0  0
   10.3321    0.6392    0.0000 H   0  0  0  0  0  0  0  0  0  0  0  0
    8.4887    4.2047    0.0000 H   0  0  0  0  0  0  0  0  0  0  0  0
    7.6917    4.2047    0.0000 H   0  0  0  0  0  0  0  0  0  0  0  0
   12.7441    1.0936    0.0000 H   0  0  0  0  0  0  0  0  0  0  0  0
   12.4299    1.9122    0.0000 H   0  0  0  0  0  0  0  0  0  0  0  0
   11.6113    1.5979    0.0000 H   0  0  0  0  0  0  0  0  0  0  0  0
    8.6462    2.6928    0.0000 H   0  0  0  0  0  0  0  0  0  0  0  0
    9.4932    2.9198    0.0000 H   0  0  0  0  0  0  0  0  0  0  0  0
    9.2662    3.7667    0.0000 H   0  0  0  0  0  0  0  0  0  0  0  0
  1 38  1  0  0  0  0
  2 18  2  0  0  0  0
  3 21  2  0  0  0  0
  4 25  2  0  0  0  0
  5 34  1  0  0  0  0
  5 41  1  0  0  0  0
  6 33  2  0  0  0  0
  7 34  2  0  0  0  0
  8 12  1  0  0  0  0
  8 40  1  0  0  0  0
  9 17  1  0  0  0  0
  9 18  1  0  0  0  0
  9 53  1  0  0  0  0
 10 16  1  0  0  0  0
 10 21  1  0  0  0  0
 10 56  1  0  0  0  0
 11 22  1  0  0  0  0
 11 33  1  0  0  0  0
 11 62  1  0  0  0  0
 12 37  2  0  0  0  0
 13 14  1  0  0  0  0
 13 15  1  0  0  0  0
 13 18  1  0  0  0  0
 13 44  1  0  0  0  0
 14 16  1  0  0  0  0
 14 45  1  0  0  0  0
 14 46  1  0  0  0  0
 15 17  1  0  0  0  0
 15 47  1  0  0  0  0
 15 48  1  0  0  0  0
 16 26  1  0  0  0  0
 16 49  1  0  0  0  0
 17 50  1  0  0  0  0
 17 51  1  0  0  0  0
 19 20  1  0  0  0  0
 19 21  1  0  0  0  0
 19 23  1  0  0  0  0
 19 52  1  0  0  0  0
 20 25  1  0  0  0  0
 20 54  1  0  0  0  0
 20 55  1  0  0  0  0
 22 24  1  0  0  0  0
 22 25  1  0  0  0  0
 22 57  1  0  0  0  0
 23 27  1  0  0  0  0
 23 58  1  0  0  0  0
 23 59  1  0  0  0  0
 24 28  1  0  0  0  0
 24 29  1  0  0  0  0
 24 60  1  0  0  0  0
 26 30  2  3  0  0  0
 26 61  1  0  0  0  0
 27 31  2  0  0  0  0
 27 32  1  0  0  0  0
 28 63  1  0  0  0  0
 28 64  1  0  0  0  0
 28 65  1  0  0  0  0
 29 66  1  0  0  0  0
 29 67  1  0  0  0  0
 29 68  1  0  0  0  0
 30 34  1  0  0  0  0
 30 69  1  0  0  0  0
 31 35  1  0  0  0  0
 31 70  1  0  0  0  0
 32 36  2  0  0  0  0
 32 71  1  0  0  0  0
 33 37  1  0  0  0  0
 35 38  2  0  0  0  0
 35 72  1  0  0  0  0
 36 38  1  0  0  0  0
 36 73  1  0  0  0  0
 37 39  1  0  0  0  0
 39 40  2  0  0  0  0
 39 74  1  0  0  0  0
 40 42  1  0  0  0  0
 41 43  1  0  0  0  0
 41 75  1  0  0  0  0
 41 76  1  0  0  0  0
 42 77  1  0  0  0  0
 42 78  1  0  0  0  0
 42 79  1  0  0  0  0
 43 80  1  0  0  0  0
 43 81  1  0  0  0  0
 43 82  1  0  0  0  0
M  END
> <PUBCHEM_COMPOUND_CID>
69866278

> <PUBCHEM_COMPOUND_CANONICALIZED>
1

> <PUBCHEM_CACTVS_COMPLEXITY>
1010

> <PUBCHEM_CACTVS_HBOND_ACCEPTOR>
9

> <PUBCHEM_CACTVS_HBOND_DONOR>
3

> <PUBCHEM_CACTVS_ROTATABLE_BOND>
16

> <PUBCHEM_CACTVS_SUBSKEYS>
AAADcfB7uQAAAAAAAAAAAAAAAAAAAWLAAAAwAAAAAAAAAAABwAAAHwAUAAAADSzhng4yjJLQBACpA6XyWgCCAAAmIgAomKG+bNoIZjqAtbOWMYhmlhiI6cc/icCeAAAAAAAAAAAAAAAAAAAAAAAAAAAAAA==

> <PUBCHEM_IUPAC_OPENEYE_NAME>
ethyl 4-[[2-[(4-fluorophenyl)methyl]-6-methyl-5-[(5-methylisoxazole-3-carbonyl)amino]-4-oxo-heptanoyl]amino]-5-(2-oxopyrrolidin-3-yl)pent-2-enoate

> <PUBCHEM_IUPAC_CAS_NAME>
4-[[2-[(4-fluorophenyl)methyl]-6-methyl-5-[[(5-methyl-3-isoxazolyl)-oxomethyl]amino]-1,4-dioxoheptyl]amino]-5-(2-oxo-3-pyrrolidinyl)-2-pentenoic acid ethyl ester

> <PUBCHEM_IUPAC_NAME_MARKUP>
ethyl 4-[[2-[(4-fluorophenyl)methyl]-6-methyl-5-[(5-methyl-1,2-oxazole-3-carbonyl)amino]-4-oxoheptanoyl]amino]-5-(2-oxopyrrolidin-3-yl)pent-2-enoate

> <PUBCHEM_IUPAC_NAME>
ethyl 4-[[2-[(4-fluorophenyl)methyl]-6-methyl-5-[(5-methyl-1,2-oxazole-3-carbonyl)amino]-4-oxoheptanoyl]amino]-5-(2-oxopyrrolidin-3-yl)pent-2-enoate

> <PUBCHEM_IUPAC_SYSTEMATIC_NAME>
ethyl 4-[[2-[(4-fluorophenyl)methyl]-6-methyl-5-[(5-methyl-1,2-oxazol-3-yl)carbonylamino]-4-oxidanylidene-heptanoyl]amino]-5-(2-oxidanylidenepyrrolidin-3-yl)pent-2-enoate

> <PUBCHEM_IUPAC_TRADITIONAL_NAME>
4-[[2-(4-fluorobenzyl)-4-keto-6-methyl-5-[(5-methylisoxazole-3-carbonyl)amino]heptanoyl]amino]-5-(2-ketopyrrolidin-3-yl)pent-2-enoic acid ethyl ester

> <PUBCHEM_IUPAC_INCHI>
InChI=1S/C31H39FN4O7/c1-5-42-27(38)11-10-24(16-21-12-13-33-29(21)39)34-30(40)22(15-20-6-8-23(32)9-7-20)17-26(37)28(18(2)3)35-31(41)25-14-19(4)43-36-25/h6-11,14,18,21-22,24,28H,5,12-13,15-17H2,1-4H3,(H,33,39)(H,34,40)(H,35,41)

> <PUBCHEM_IUPAC_INCHIKEY>
CAYJBRBGZBCZKO-UHFFFAOYSA-N

> <PUBCHEM_XLOGP3_AA>
3.1

> <PUBCHEM_EXACT_MASS>
598.280278

> <PUBCHEM_MOLECULAR_FORMULA>
C31H39FN4O7

> <PUBCHEM_MOLECULAR_WEIGHT>
598.7

> <PUBCHEM_OPENEYE_CAN_SMILES>
CCOC(=O)C=CC(CC1CCNC1=O)NC(=O)C(CC2=CC=C(C=C2)F)CC(=O)C(C(C)C)NC(=O)C3=NOC(=C3)C

> <PUBCHEM_OPENEYE_ISO_SMILES>
CCOC(=O)C=CC(CC1CCNC1=O)NC(=O)C(CC2=CC=C(C=C2)F)CC(=O)C(C(C)C)NC(=O)C3=NOC(=C3)C

> <PUBCHEM_CACTVS_TPSA>
157

> <PUBCHEM_MONOISOTOPIC_WEIGHT>
598.280278

> <PUBCHEM_TOTAL_CHARGE>
0

> <PUBCHEM_HEAVY_ATOM_COUNT>
43

> <PUBCHEM_ATOM_DEF_STEREO_COUNT>
0

> <PUBCHEM_ATOM_UDEF_STEREO_COUNT>
4

> <PUBCHEM_BOND_DEF_STEREO_COUNT>
0

> <PUBCHEM_BOND_UDEF_STEREO_COUNT>
1

> <PUBCHEM_ISOTOPIC_ATOM_COUNT>
0

> <PUBCHEM_COMPONENT_COUNT>
1

> <PUBCHEM_CACTVS_TAUTO_COUNT>
-1

> <PUBCHEM_COORDINATE_TYPE>
1
5
255

> <PUBCHEM_BONDANNOTATIONS>
12  37  8
13  14  3
16  14  3
19  23  3
22  24  3
26  30  1
27  31  8
27  32  8
31  35  8
32  36  8
35  38  8
36  38  8
37  39  8
39  40  8
8  12  8
8  40  8

$$$$
70316404
  -OEChem-02212016592D

 81 83  0     1  0  0  0  0  0999 V2000
    5.3147   -5.5580    0.0000 F   0  0  0  0  0  0  0  0  0  0  0  0
    9.0062   -4.7216    0.0000 O   0  0  0  0  0  0  0  0  0  0  0  0
    7.0468   -2.5580    0.0000 O   0  0  0  0  0  0  0  0  0  0  0  0
    4.4487   -0.0580    0.0000 O   0  0  0  0  0  0  0  0  0  0  0  0
   11.3769   -0.0580    0.0000 O   0  0  0  0  0  0  0  0  0  0  0  0
   10.5109    1.4420    0.0000 O   0  0  0  0  0  0  0  0  0  0  0  0
    5.3147    3.4420    0.0000 O   0  0  0  0  0  0  0  0  0  0  0  0
    2.0000    3.7784    0.0000 O   0  0  0  0  0  0  0  0  0  0  0  0
   10.7275   -4.2604    0.0000 N   0  0  0  0  0  0  0  0  0  0  0  0
    7.9128   -1.0580    0.0000 N   0  0  0  0  0  0  0  0  0  0  0  0
    6.1808   -0.0580    0.0000 N   0  0  0  0  0  0  0  0  0  0  0  0
    4.4487    1.9420    0.0000 N   0  0  0  0  0  0  0  0  0  0  0  0
    2.6691    3.0353    0.0000 N   0  0  0  0  0  0  0  0  0  0  0  0
    9.6448   -3.0580    0.0000 C   0  0  3  0  0  0  0  0  0  0  0  0
    8.7788   -2.5580    0.0000 C   0  0  0  0  0  0  0  0  0  0  0  0
   10.5584   -2.6512    0.0000 C   0  0  0  0  0  0  0  0  0  0  0  0
    8.7788   -1.5580    0.0000 C   0  0  3  0  0  0  0  0  0  0  0  0
   11.2275   -3.3944    0.0000 C   0  0  0  0  0  0  0  0  0  0  0  0
    9.7494   -4.0525    0.0000 C   0  0  0  0  0  0  0  0  0  0  0  0
    6.1808   -1.0580    0.0000 C   0  0  2  0  0  0  0  0  0  0  0  0
    9.6448   -1.0580    0.0000 C   0  0  0  0  0  0  0  0  0  0  0  0
    7.0468   -1.5580    0.0000 C   0  0  0  0  0  0  0  0  0  0  0  0
    5.3147    1.4420    0.0000 C   0  0  3  0  0  0  0  0  0  0  0  0
    5.3147   -1.5580    0.0000 C   0  0  0  0  0  0  0  0  0  0  0  0
    6.1808    1.9420    0.0000 C   0  0  0  0  0  0  0  0  0  0  0  0
    5.3147    0.4420    0.0000 C   0  0  0  0  0  0  0  0  0  0  0  0
    9.6448   -0.0580    0.0000 C   0  0  0  0  0  0  0  0  0  0  0  0
    5.3147   -2.5580    0.0000 C   0  0  0  0  0  0  0  0  0  0  0  0
    6.1808    2.9420    0.0000 C   0  0  0  0  0  0  0  0  0  0  0  0
    7.0468    1.4420    0.0000 C   0  0  0  0  0  0  0  0  0  0  0  0
    6.1808   -3.0580    0.0000 C   0  0  0  0  0  0  0  0  0  0  0  0
    4.4487   -3.0580    0.0000 C   0  0  0  0  0  0  0  0  0  0  0  0
   10.5109    0.4420    0.0000 C   0  0  0  0  0  0  0  0  0  0  0  0
    4.4487    2.9420    0.0000 C   0  0  0  0  0  0  0  0  0  0  0  0
    6.1808   -4.0580    0.0000 C   0  0  0  0  0  0  0  0  0  0  0  0
    4.4487   -4.0580    0.0000 C   0  0  0  0  0  0  0  0  0  0  0  0
    3.5827    3.4420    0.0000 C   0  0  0  0  0  0  0  0  0  0  0  0
    5.3147   -4.5580    0.0000 C   0  0  0  0  0  0  0  0  0  0  0  0
    3.4782    4.4365    0.0000 C   0  0  0  0  0  0  0  0  0  0  0  0
   12.2429    0.4420    0.0000 C   0  0  0  0  0  0  0  0  0  0  0  0
    2.5000    4.6444    0.0000 C   0  0  0  0  0  0  0  0  0  0  0  0
   13.1090   -0.0580    0.0000 C   0  0  0  0  0  0  0  0  0  0  0  0
    2.0933    5.5580    0.0000 C   0  0  0  0  0  0  0  0  0  0  0  0
    9.1249   -3.3957    0.0000 H   0  0  0  0  0  0  0  0  0  0  0  0
    8.1682   -2.4503    0.0000 H   0  0  0  0  0  0  0  0  0  0  0  0
    8.5668   -3.1406    0.0000 H   0  0  0  0  0  0  0  0  0  0  0  0
   11.0600   -2.2868    0.0000 H   0  0  0  0  0  0  0  0  0  0  0  0
   10.2484   -2.1143    0.0000 H   0  0  0  0  0  0  0  0  0  0  0  0
    8.2419   -1.8680    0.0000 H   0  0  0  0  0  0  0  0  0  0  0  0
   11.7291   -3.7588    0.0000 H   0  0  0  0  0  0  0  0  0  0  0  0
   11.6424   -2.9336    0.0000 H   0  0  0  0  0  0  0  0  0  0  0  0
   10.9797   -4.8268    0.0000 H   0  0  0  0  0  0  0  0  0  0  0  0
    7.9128   -0.4380    0.0000 H   0  0  0  0  0  0  0  0  0  0  0  0
    6.7177   -0.7480    0.0000 H   0  0  0  0  0  0  0  0  0  0  0  0
   10.1818   -1.3680    0.0000 H   0  0  0  0  0  0  0  0  0  0  0  0
    5.3147    2.0620    0.0000 H   0  0  0  0  0  0  0  0  0  0  0  0
    5.1027   -0.9754    0.0000 H   0  0  0  0  0  0  0  0  0  0  0  0
    4.7042   -1.6656    0.0000 H   0  0  0  0  0  0  0  0  0  0  0  0
    6.1808    1.3220    0.0000 H   0  0  0  0  0  0  0  0  0  0  0  0
    6.7177    0.2520    0.0000 H   0  0  0  0  0  0  0  0  0  0  0  0
    9.1079    0.2520    0.0000 H   0  0  0  0  0  0  0  0  0  0  0  0
    6.8008    2.9420    0.0000 H   0  0  0  0  0  0  0  0  0  0  0  0
    6.1808    3.5620    0.0000 H   0  0  0  0  0  0  0  0  0  0  0  0
    5.5608    2.9420    0.0000 H   0  0  0  0  0  0  0  0  0  0  0  0
    6.7368    0.9051    0.0000 H   0  0  0  0  0  0  0  0  0  0  0  0
    7.5837    1.1320    0.0000 H   0  0  0  0  0  0  0  0  0  0  0  0
    7.3568    1.9790    0.0000 H   0  0  0  0  0  0  0  0  0  0  0  0
    3.9118    1.6320    0.0000 H   0  0  0  0  0  0  0  0  0  0  0  0
    6.7177   -2.7480    0.0000 H   0  0  0  0  0  0  0  0  0  0  0  0
    3.9118   -2.7480    0.0000 H   0  0  0  0  0  0  0  0  0  0  0  0
    6.7177   -4.3680    0.0000 H   0  0  0  0  0  0  0  0  0  0  0  0
    3.9118   -4.3680    0.0000 H   0  0  0  0  0  0  0  0  0  0  0  0
    3.9389    4.8514    0.0000 H   0  0  0  0  0  0  0  0  0  0  0  0
   12.6415    0.9170    0.0000 H   0  0  0  0  0  0  0  0  0  0  0  0
   11.8444    0.9170    0.0000 H   0  0  0  0  0  0  0  0  0  0  0  0
   12.7990   -0.5949    0.0000 H   0  0  0  0  0  0  0  0  0  0  0  0
   13.6459   -0.3680    0.0000 H   0  0  0  0  0  0  0  0  0  0  0  0
   13.4190    0.4789    0.0000 H   0  0  0  0  0  0  0  0  0  0  0  0
    2.6597    5.8102    0.0000 H   0  0  0  0  0  0  0  0  0  0  0  0
    1.8411    6.1244    0.0000 H   0  0  0  0  0  0  0  0  0  0  0  0
    1.5269    5.3058    0.0000 H   0  0  0  0  0  0  0  0  0  0  0  0
  1 38  1  0  0  0  0
  2 19  2  0  0  0  0
  3 22  2  0  0  0  0
  4 26  2  0  0  0  0
  5 33  1  0  0  0  0
  5 40  1  0  0  0  0
  6 33  2  0  0  0  0
  7 34  2  0  0  0  0
  8 13  1  0  0  0  0
  8 41  1  0  0  0  0
  9 18  1  0  0  0  0
  9 19  1  0  0  0  0
  9 52  1  0  0  0  0
 10 17  1  0  0  0  0
 10 22  1  0  0  0  0
 10 53  1  0  0  0  0
 20 11  1  6  0  0  0
 11 26  1  0  0  0  0
 11 60  1  0  0  0  0
 12 23  1  0  0  0  0
 12 34  1  0  0  0  0
 12 68  1  0  0  0  0
 13 37  2  0  0  0  0
 14 15  1  0  0  0  0
 14 16  1  0  0  0  0
 14 19  1  0  0  0  0
 14 44  1  0  0  0  0
 15 17  1  0  0  0  0
 15 45  1  0  0  0  0
 15 46  1  0  0  0  0
 16 18  1  0  0  0  0
 16 47  1  0  0  0  0
 16 48  1  0  0  0  0
 17 21  1  0  0  0  0
 17 49  1  0  0  0  0
 18 50  1  0  0  0  0
 18 51  1  0  0  0  0
 20 22  1  0  0  0  0
 20 24  1  0  0  0  0
 20 54  1  0  0  0  0
 21 27  2  0  0  0  0
 21 55  1  0  0  0  0
 23 25  1  0  0  0  0
 23 26  1  0  0  0  0
 23 56  1  0  0  0  0
 24 28  1  0  0  0  0
 24 57  1  0  0  0  0
 24 58  1  0  0  0  0
 25 29  1  0  0  0  0
 25 30  1  0  0  0  0
 25 59  1  0  0  0  0
 27 33  1  0  0  0  0
 27 61  1  0  0  0  0
 28 31  2  0  0  0  0
 28 32  1  0  0  0  0
 29 62  1  0  0  0  0
 29 63  1  0  0  0  0
 29 64  1  0  0  0  0
 30 65  1  0  0  0  0
 30 66  1  0  0  0  0
 30 67  1  0  0  0  0
 31 35  1  0  0  0  0
 31 69  1  0  0  0  0
 32 36  2  0  0  0  0
 32 70  1  0  0  0  0
 34 37  1  0  0  0  0
 35 38  2  0  0  0  0
 35 71  1  0  0  0  0
 36 38  1  0  0  0  0
 36 72  1  0  0  0  0
 37 39  1  0  0  0  0
 39 41  2  0  0  0  0
 39 73  1  0  0  0  0
 40 42  1  0  0  0  0
 40 74  1  0  0  0  0
 40 75  1  0  0  0  0
 41 43  1  0  0  0  0
 42 76  1  0  0  0  0
 42 77  1  0  0  0  0
 42 78  1  0  0  0  0
 43 79  1  0  0  0  0
 43 80  1  0  0  0  0
 43 81  1  0  0  0  0
M  END
> <PUBCHEM_COMPOUND_CID>
70316404

> <PUBCHEM_COMPOUND_CANONICALIZED>
1

> <PUBCHEM_CACTVS_COMPLEXITY>
1020

> <PUBCHEM_CACTVS_HBOND_ACCEPTOR>
9

> <PUBCHEM_CACTVS_HBOND_DONOR>
4

> <PUBCHEM_CACTVS_ROTATABLE_BOND>
15

> <PUBCHEM_CACTVS_SUBSKEYS>
AAADcfB7uQAAAAAAAAAAAAAAAAAAAWLAAAAwAAAAAAAAAAABwAAAHwAUAAAADSzhng4yjJLQBACpA6XyWgCCAAAmIgAomKG+bNoIZjqAtbOWMYhmlhiI6cc/iICOAAAAAAAAAAAAAAAAAAAAAAAAAAAAAA==

> <PUBCHEM_IUPAC_OPENEYE_NAME>
ethyl (E)-4-[[(2S)-3-(4-fluorophenyl)-2-[[3-methyl-2-[(5-methylisoxazole-3-carbonyl)amino]butanoyl]amino]propanoyl]amino]-5-(2-oxopyrrolidin-3-yl)pent-2-enoate

> <PUBCHEM_IUPAC_CAS_NAME>
(E)-4-[[(2S)-3-(4-fluorophenyl)-2-[[3-methyl-2-[[(5-methyl-3-isoxazolyl)-oxomethyl]amino]-1-oxobutyl]amino]-1-oxopropyl]amino]-5-(2-oxo-3-pyrrolidinyl)-2-pentenoic acid ethyl ester

> <PUBCHEM_IUPAC_NAME_MARKUP>
ethyl (<I>E</I>)-4-[[(2<I>S</I>)-3-(4-fluorophenyl)-2-[[3-methyl-2-[(5-methyl-1,2-oxazole-3-carbonyl)amino]butanoyl]amino]propanoyl]amino]-5-(2-oxopyrrolidin-3-yl)pent-2-enoate

> <PUBCHEM_IUPAC_NAME>
ethyl (E)-4-[[(2S)-3-(4-fluorophenyl)-2-[[3-methyl-2-[(5-methyl-1,2-oxazole-3-carbonyl)amino]butanoyl]amino]propanoyl]amino]-5-(2-oxopyrrolidin-3-yl)pent-2-enoate

> <PUBCHEM_IUPAC_SYSTEMATIC_NAME>
ethyl (E)-4-[[(2S)-3-(4-fluorophenyl)-2-[[3-methyl-2-[(5-methyl-1,2-oxazol-3-yl)carbonylamino]butanoyl]amino]propanoyl]amino]-5-(2-oxidanylidenepyrrolidin-3-yl)pent-2-enoate

> <PUBCHEM_IUPAC_TRADITIONAL_NAME>
(E)-4-[[(2S)-3-(4-fluorophenyl)-2-[[3-methyl-2-[(5-methylisoxazole-3-carbonyl)amino]butanoyl]amino]propanoyl]amino]-5-(2-ketopyrrolidin-3-yl)pent-2-enoic acid ethyl ester

> <PUBCHEM_IUPAC_INCHI>
InChI=1S/C30H38FN5O7/c1-5-42-25(37)11-10-22(16-20-12-13-32-27(20)38)33-28(39)23(15-19-6-8-21(31)9-7-19)34-30(41)26(17(2)3)35-29(40)24-14-18(4)43-36-24/h6-11,14,17,20,22-23,26H,5,12-13,15-16H2,1-4H3,(H,32,38)(H,33,39)(H,34,41)(H,35,40)/b11-10+/t20?,22?,23-,26?/m0/s1

> <PUBCHEM_IUPAC_INCHIKEY>
JSJRYDPMCHPLOL-JZKWFUCHSA-N

> <PUBCHEM_XLOGP3_AA>
2.8

> <PUBCHEM_EXACT_MASS>
599.275527

> <PUBCHEM_MOLECULAR_FORMULA>
C30H38FN5O7

> <PUBCHEM_MOLECULAR_WEIGHT>
599.6

> <PUBCHEM_OPENEYE_CAN_SMILES>
CCOC(=O)C=CC(CC1CCNC1=O)NC(=O)C(CC2=CC=C(C=C2)F)NC(=O)C(C(C)C)NC(=O)C3=NOC(=C3)C

> <PUBCHEM_OPENEYE_ISO_SMILES>
CCOC(=O)/C=C/C(CC1CCNC1=O)NC(=O)[C@H](CC2=CC=C(C=C2)F)NC(=O)C(C(C)C)NC(=O)C3=NOC(=C3)C

> <PUBCHEM_CACTVS_TPSA>
169

> <PUBCHEM_MONOISOTOPIC_WEIGHT>
599.275527

> <PUBCHEM_TOTAL_CHARGE>
0

> <PUBCHEM_HEAVY_ATOM_COUNT>
43

> <PUBCHEM_ATOM_DEF_STEREO_COUNT>
1

> <PUBCHEM_ATOM_UDEF_STEREO_COUNT>
3

> <PUBCHEM_BOND_DEF_STEREO_COUNT>
1

> <PUBCHEM_BOND_UDEF_STEREO_COUNT>
0

> <PUBCHEM_ISOTOPIC_ATOM_COUNT>
0

> <PUBCHEM_COMPONENT_COUNT>
1

> <PUBCHEM_CACTVS_TAUTO_COUNT>
-1

> <PUBCHEM_COORDINATE_TYPE>
1
5
255

> <PUBCHEM_BONDANNOTATIONS>
20  11  6
13  37  8
14  15  3
17  15  3
23  25  3
28  31  8
28  32  8
31  35  8
32  36  8
35  38  8
36  38  8
37  39  8
39  41  8
8  13  8
8  41  8

$$$$
71752144
  -OEChem-02212016592D

 82 84  0     1  0  0  0  0  0999 V2000
    5.4641   -5.2702    0.0000 F   0  0  0  0  0  0  0  0  0  0  0  0
    8.0902    3.5086    0.0000 O   0  0  0  0  0  0  0  0  0  0  0  0
    7.1962    0.7298    0.0000 O   0  0  0  0  0  0  0  0  0  0  0  0
    8.0622    0.2298    0.0000 O   0  0  0  0  0  0  0  0  0  0  0  0
    2.8660    3.2298    0.0000 O   0  0  0  0  0  0  0  0  0  0  0  0
   10.6603   -2.2702    0.0000 O   0  0  0  0  0  0  0  0  0  0  0  0
    2.0000    1.7298    0.0000 O   0  0  0  0  0  0  0  0  0  0  0  0
   12.6090    0.4322    0.0000 O   0  0  0  0  0  0  0  0  0  0  0  0
    6.8301    4.7686    0.0000 N   0  0  0  0  0  0  0  0  0  0  0  0
    5.4641    0.7298    0.0000 N   0  0  0  0  0  0  0  0  0  0  0  0
    9.7942   -0.7702    0.0000 N   0  0  0  0  0  0  0  0  0  0  0  0
   11.6308    0.2243    0.0000 N   0  0  0  0  0  0  0  0  0  0  0  0
    6.3301    3.2298    0.0000 C   0  0  2  0  0  0  0  0  0  0  0  0
    6.3301    2.2298    0.0000 C   0  0  0  0  0  0  0  0  0  0  0  0
    5.5211    3.8176    0.0000 C   0  0  0  0  0  0  0  0  0  0  0  0
    5.4641    1.7298    0.0000 C   0  0  1  0  0  0  0  0  0  0  0  0
    5.8301    4.7686    0.0000 C   0  0  0  0  0  0  0  0  0  0  0  0
    7.1391    3.8176    0.0000 C   0  0  0  0  0  0  0  0  0  0  0  0
    6.3301   -0.7702    0.0000 C   0  0  2  0  0  0  0  0  0  0  0  0
    7.1962   -1.2702    0.0000 C   0  0  0  0  0  0  0  0  0  0  0  0
    6.3301    0.2298    0.0000 C   0  0  0  0  0  0  0  0  0  0  0  0
    8.9282   -1.2702    0.0000 C   0  0  1  0  0  0  0  0  0  0  0  0
    5.4641   -1.2702    0.0000 C   0  0  0  0  0  0  0  0  0  0  0  0
    8.9282   -2.2702    0.0000 C   0  0  0  0  0  0  0  0  0  0  0  0
    8.0622   -0.7702    0.0000 C   0  0  0  0  0  0  0  0  0  0  0  0
    4.5981    2.2298    0.0000 C   0  0  0  0  0  0  0  0  0  0  0  0
    5.4641   -2.2702    0.0000 C   0  0  0  0  0  0  0  0  0  0  0  0
    9.7942   -2.7702    0.0000 C   0  0  0  0  0  0  0  0  0  0  0  0
    8.0622   -2.7702    0.0000 C   0  0  0  0  0  0  0  0  0  0  0  0
    3.7320    1.7298    0.0000 C   0  0  0  0  0  0  0  0  0  0  0  0
    6.3301   -2.7702    0.0000 C   0  0  0  0  0  0  0  0  0  0  0  0
    4.5981   -2.7702    0.0000 C   0  0  0  0  0  0  0  0  0  0  0  0
   10.6603   -1.2702    0.0000 C   0  0  0  0  0  0  0  0  0  0  0  0
    2.8660    2.2298    0.0000 C   0  0  0  0  0  0  0  0  0  0  0  0
    6.3301   -3.7702    0.0000 C   0  0  0  0  0  0  0  0  0  0  0  0
    4.5981   -3.7702    0.0000 C   0  0  0  0  0  0  0  0  0  0  0  0
   11.5263   -0.7702    0.0000 C   0  0  0  0  0  0  0  0  0  0  0  0
    5.4641   -4.2702    0.0000 C   0  0  0  0  0  0  0  0  0  0  0  0
   12.4398   -1.1770    0.0000 C   0  0  0  0  0  0  0  0  0  0  0  0
   13.1090   -0.4338    0.0000 C   0  0  0  0  0  0  0  0  0  0  0  0
    2.0000    3.7298    0.0000 C   0  0  0  0  0  0  0  0  0  0  0  0
   14.1035   -0.5383    0.0000 C   0  0  0  0  0  0  0  0  0  0  0  0
    2.0000    4.7298    0.0000 C   0  0  0  0  0  0  0  0  0  0  0  0
    6.8826    2.9483    0.0000 H   0  0  0  0  0  0  0  0  0  0  0  0
    6.5422    1.6472    0.0000 H   0  0  0  0  0  0  0  0  0  0  0  0
    6.9407    2.3374    0.0000 H   0  0  0  0  0  0  0  0  0  0  0  0
    4.9547    4.0698    0.0000 H   0  0  0  0  0  0  0  0  0  0  0  0
    5.2111    3.2806    0.0000 H   0  0  0  0  0  0  0  0  0  0  0  0
    6.0010    1.4198    0.0000 H   0  0  0  0  0  0  0  0  0  0  0  0
    5.8949    5.3852    0.0000 H   0  0  0  0  0  0  0  0  0  0  0  0
    5.2237    4.8975    0.0000 H   0  0  0  0  0  0  0  0  0  0  0  0
    6.8671   -0.4602    0.0000 H   0  0  0  0  0  0  0  0  0  0  0  0
    7.1946    5.2702    0.0000 H   0  0  0  0  0  0  0  0  0  0  0  0
    6.7976   -1.7452    0.0000 H   0  0  0  0  0  0  0  0  0  0  0  0
    7.5947   -1.7452    0.0000 H   0  0  0  0  0  0  0  0  0  0  0  0
    4.9272    0.4198    0.0000 H   0  0  0  0  0  0  0  0  0  0  0  0
    8.9282   -0.6502    0.0000 H   0  0  0  0  0  0  0  0  0  0  0  0
    5.2520   -0.6876    0.0000 H   0  0  0  0  0  0  0  0  0  0  0  0
    4.8535   -1.3779    0.0000 H   0  0  0  0  0  0  0  0  0  0  0  0
    9.4651   -1.9602    0.0000 H   0  0  0  0  0  0  0  0  0  0  0  0
    4.5981    2.8498    0.0000 H   0  0  0  0  0  0  0  0  0  0  0  0
    9.7942   -0.1502    0.0000 H   0  0  0  0  0  0  0  0  0  0  0  0
    9.4842   -3.3072    0.0000 H   0  0  0  0  0  0  0  0  0  0  0  0
   10.3312   -3.0802    0.0000 H   0  0  0  0  0  0  0  0  0  0  0  0
   10.1042   -2.2333    0.0000 H   0  0  0  0  0  0  0  0  0  0  0  0
    7.7522   -2.2333    0.0000 H   0  0  0  0  0  0  0  0  0  0  0  0
    7.5252   -3.0802    0.0000 H   0  0  0  0  0  0  0  0  0  0  0  0
    8.3722   -3.3072    0.0000 H   0  0  0  0  0  0  0  0  0  0  0  0
    3.7320    1.1098    0.0000 H   0  0  0  0  0  0  0  0  0  0  0  0
    6.8671   -2.4602    0.0000 H   0  0  0  0  0  0  0  0  0  0  0  0
    4.0611   -2.4602    0.0000 H   0  0  0  0  0  0  0  0  0  0  0  0
    6.8671   -4.0802    0.0000 H   0  0  0  0  0  0  0  0  0  0  0  0
    4.0611   -4.0802    0.0000 H   0  0  0  0  0  0  0  0  0  0  0  0
   12.5687   -1.7834    0.0000 H   1  0  0  0  0  0  0  0  0  0  0  0
    1.3894    3.8374    0.0000 H   0  0  0  0  0  0  0  0  0  0  0  0
    1.7880    3.1472    0.0000 H   0  0  0  0  0  0  0  0  0  0  0  0
   14.7201   -0.6031    0.0000 H   1  0  0  0  0  0  0  0  0  0  0  0
   14.1683    0.0783    0.0000 H   1  0  0  0  0  0  0  0  0  0  0  0
   14.0387   -1.1549    0.0000 H   1  0  0  0  0  0  0  0  0  0  0  0
    2.6200    4.7298    0.0000 H   0  0  0  0  0  0  0  0  0  0  0  0
    2.0000    5.3498    0.0000 H   0  0  0  0  0  0  0  0  0  0  0  0
    1.3800    4.7298    0.0000 H   0  0  0  0  0  0  0  0  0  0  0  0
  1 38  1  0  0  0  0
  2 18  2  0  0  0  0
  3 21  2  0  0  0  0
  4 25  2  0  0  0  0
  5 34  1  0  0  0  0
  5 41  1  0  0  0  0
  6 33  2  0  0  0  0
  7 34  2  0  0  0  0
  8 12  1  0  0  0  0
  8 40  1  0  0  0  0
  9 17  1  0  0  0  0
  9 18  1  0  0  0  0
  9 53  1  0  0  0  0
 16 10  1  6  0  0  0
 10 21  1  0  0  0  0
 10 56  1  0  0  0  0
 22 11  1  1  0  0  0
 11 33  1  0  0  0  0
 11 62  1  0  0  0  0
 12 37  2  0  0  0  0
 13 14  1  6  0  0  0
 13 15  1  0  0  0  0
 13 18  1  0  0  0  0
 13 44  1  0  0  0  0
 14 16  1  0  0  0  0
 14 45  1  0  0  0  0
 14 46  1  0  0  0  0
 15 17  1  0  0  0  0
 15 47  1  0  0  0  0
 15 48  1  0  0  0  0
 16 26  1  0  0  0  0
 16 49  1  0  0  0  0
 17 50  1  0  0  0  0
 17 51  1  0  0  0  0
 19 20  1  1  0  0  0
 19 21  1  0  0  0  0
 19 23  1  0  0  0  0
 19 52  1  0  0  0  0
 20 25  1  0  0  0  0
 20 54  1  0  0  0  0
 20 55  1  0  0  0  0
 22 24  1  0  0  0  0
 22 25  1  0  0  0  0
 22 57  1  0  0  0  0
 23 27  1  0  0  0  0
 23 58  1  0  0  0  0
 23 59  1  0  0  0  0
 24 28  1  0  0  0  0
 24 29  1  0  0  0  0
 24 60  1  0  0  0  0
 26 30  2  0  0  0  0
 26 61  1  0  0  0  0
 27 31  2  0  0  0  0
 27 32  1  0  0  0  0
 28 63  1  0  0  0  0
 28 64  1  0  0  0  0
 28 65  1  0  0  0  0
 29 66  1  0  0  0  0
 29 67  1  0  0  0  0
 29 68  1  0  0  0  0
 30 34  1  0  0  0  0
 30 69  1  0  0  0  0
 31 35  1  0  0  0  0
 31 70  1  0  0  0  0
 32 36  2  0  0  0  0
 32 71  1  0  0  0  0
 33 37  1  0  0  0  0
 35 38  2  0  0  0  0
 35 72  1  0  0  0  0
 36 38  1  0  0  0  0
 36 73  1  0  0  0  0
 37 39  1  0  0  0  0
 39 40  2  0  0  0  0
 39 74  1  0  0  0  0
 40 42  1  0  0  0  0
 41 43  1  0  0  0  0
 41 75  1  0  0  0  0
 41 76  1  0  0  0  0
 42 77  1  0  0  0  0
 42 78  1  0  0  0  0
 42 79  1  0  0  0  0
 43 80  1  0  0  0  0
 43 81  1  0  0  0  0
 43 82  1  0  0  0  0
M  ISO  4  74   2  77   2  78   2  79   2
M  END
> <PUBCHEM_COMPOUND_CID>
71752144

> <PUBCHEM_COMPOUND_CANONICALIZED>
1

> <PUBCHEM_CACTVS_COMPLEXITY>
1010

> <PUBCHEM_CACTVS_HBOND_ACCEPTOR>
9

> <PUBCHEM_CACTVS_HBOND_DONOR>
3

> <PUBCHEM_CACTVS_ROTATABLE_BOND>
16

> <PUBCHEM_CACTVS_SUBSKEYS>
AAADcfB7uQAAAAAAAAAAAAAAAAAAAWLAAAAwAAAAAAAAAAABwAAAHwAUAAAADSzhng4yjJLQBACpA6XyWgCCAAAmIgAomKG+bNoIZjqAtbOWMYhmlhiI6cc/icCeAAAAAAAAAAAAAAAAAAAAAAAAAAAAAA==

> <PUBCHEM_IUPAC_OPENEYE_NAME>
ethyl (E,4S)-4-[[(2R,5S)-5-[[4-deuterio-5-(trideuteriomethyl)isoxazole-3-carbonyl]amino]-2-[(4-fluorophenyl)methyl]-6-methyl-4-oxo-heptanoyl]amino]-5-[(3S)-2-oxopyrrolidin-3-yl]pent-2-enoate

> <PUBCHEM_IUPAC_CAS_NAME>
(E,4S)-4-[[(2R,5S)-5-[[[4-deuterio-5-(trideuteriomethyl)-3-isoxazolyl]-oxomethyl]amino]-2-[(4-fluorophenyl)methyl]-6-methyl-1,4-dioxoheptyl]amino]-5-[(3S)-2-oxo-3-pyrrolidinyl]-2-pentenoic acid ethyl ester

> <PUBCHEM_IUPAC_NAME_MARKUP>
ethyl (<I>E</I>,4<I>S</I>)-4-[[(2<I>R</I>,5<I>S</I>)-5-[[4-deuterio-5-(trideuteriomethyl)-1,2-oxazole-3-carbonyl]amino]-2-[(4-fluorophenyl)methyl]-6-methyl-4-oxoheptanoyl]amino]-5-[(3<I>S</I>)-2-oxopyrrolidin-3-yl]pent-2-enoate

> <PUBCHEM_IUPAC_NAME>
ethyl (E,4S)-4-[[(2R,5S)-5-[[4-deuterio-5-(trideuteriomethyl)-1,2-oxazole-3-carbonyl]amino]-2-[(4-fluorophenyl)methyl]-6-methyl-4-oxoheptanoyl]amino]-5-[(3S)-2-oxopyrrolidin-3-yl]pent-2-enoate

> <PUBCHEM_IUPAC_SYSTEMATIC_NAME>
ethyl (E,4S)-4-[[(2R,5S)-5-[[4-deuterio-5-(trideuteriomethyl)-1,2-oxazol-3-yl]carbonylamino]-2-[(4-fluorophenyl)methyl]-6-methyl-4-oxidanylidene-heptanoyl]amino]-5-[(3S)-2-oxidanylidenepyrrolidin-3-yl]pent-2-enoate

> <PUBCHEM_IUPAC_TRADITIONAL_NAME>
(E,4S)-4-[[(2R,5S)-5-[[4-deuterio-5-(trideuteriomethyl)isoxazole-3-carbonyl]amino]-2-(4-fluorobenzyl)-4-keto-6-methyl-heptanoyl]amino]-5-[(3S)-2-ketopyrrolidin-3-yl]pent-2-enoic acid ethyl ester

> <PUBCHEM_IUPAC_INCHI>
InChI=1S/C31H39FN4O7/c1-5-42-27(38)11-10-24(16-21-12-13-33-29(21)39)34-30(40)22(15-20-6-8-23(32)9-7-20)17-26(37)28(18(2)3)35-31(41)25-14-19(4)43-36-25/h6-11,14,18,21-22,24,28H,5,12-13,15-17H2,1-4H3,(H,33,39)(H,34,40)(H,35,41)/b11-10+/t21-,22+,24+,28-/m0/s1/i4D3,14D

> <PUBCHEM_IUPAC_INCHIKEY>
CAYJBRBGZBCZKO-FMUMRBLNSA-N

> <PUBCHEM_XLOGP3_AA>
3.1

> <PUBCHEM_EXACT_MASS>
602.305385

> <PUBCHEM_MOLECULAR_FORMULA>
C31H39FN4O7

> <PUBCHEM_MOLECULAR_WEIGHT>
602.7

> <PUBCHEM_OPENEYE_CAN_SMILES>
CCOC(=O)C=CC(CC1CCNC1=O)NC(=O)C(CC2=CC=C(C=C2)F)CC(=O)C(C(C)C)NC(=O)C3=NOC(=C3)C

> <PUBCHEM_OPENEYE_ISO_SMILES>
[2H]C1=C(ON=C1C(=O)N[C@@H](C(C)C)C(=O)C[C@@H](CC2=CC=C(C=C2)F)C(=O)N[C@@H](C[C@@H]3CCNC3=O)/C=C/C(=O)OCC)C([2H])([2H])[2H]

> <PUBCHEM_CACTVS_TPSA>
157

> <PUBCHEM_MONOISOTOPIC_WEIGHT>
602.305385

> <PUBCHEM_TOTAL_CHARGE>
0

> <PUBCHEM_HEAVY_ATOM_COUNT>
43

> <PUBCHEM_ATOM_DEF_STEREO_COUNT>
4

> <PUBCHEM_ATOM_UDEF_STEREO_COUNT>
0

> <PUBCHEM_BOND_DEF_STEREO_COUNT>
1

> <PUBCHEM_BOND_UDEF_STEREO_COUNT>
0

> <PUBCHEM_ISOTOPIC_ATOM_COUNT>
4

> <PUBCHEM_COMPONENT_COUNT>
1

> <PUBCHEM_CACTVS_TAUTO_COUNT>
-1

> <PUBCHEM_COORDINATE_TYPE>
1
5
255

> <PUBCHEM_BONDANNOTATIONS>
16  10  6
22  11  5
12  37  8
13  14  6
19  20  5
27  31  8
27  32  8
31  35  8
32  36  8
35  38  8
36  38  8
37  39  8
39  40  8
8  12  8
8  40  8

$$$$
73025171
  -OEChem-02212016592D

 97 99  0     1  0  0  0  0  0999 V2000
   13.3364    2.3557    0.0000 O   0  0  0  0  0  0  0  0  0  0  0  0
   10.5109    1.6920    0.0000 O   0  0  0  0  0  0  0  0  0  0  0  0
    9.6448    2.1920    0.0000 O   0  0  0  0  0  0  0  0  0  0  0  0
   10.5109   -2.3080    0.0000 O   0  0  0  0  0  0  0  0  0  0  0  0
    7.0468    4.6920    0.0000 O   0  0  0  0  0  0  0  0  0  0  0  0
    9.6448   -0.8080    0.0000 O   0  0  0  0  0  0  0  0  0  0  0  0
    4.4487    2.1920    0.0000 O   0  0  0  0  0  0  0  0  0  0  0  0
    2.0000    4.0284    0.0000 O   0  0  0  0  0  0  0  0  0  0  0  0
   15.0577    1.8944    0.0000 N   0  0  0  0  0  0  0  0  0  0  0  0
   12.2429    1.6920    0.0000 N   0  0  0  0  0  0  0  0  0  0  0  0
   10.5109    3.6920    0.0000 N   0  0  0  0  0  0  0  0  0  0  0  0
    7.9128    3.1920    0.0000 N   0  0  0  0  0  0  0  0  0  0  0  0
    5.3147    3.6920    0.0000 N   0  0  0  0  0  0  0  0  0  0  0  0
    2.6691    3.2853    0.0000 N   0  0  0  0  0  0  0  0  0  0  0  0
   13.9750    0.6920    0.0000 C   0  0  3  0  0  0  0  0  0  0  0  0
   13.1090    0.1920    0.0000 C   0  0  0  0  0  0  0  0  0  0  0  0
   14.8885    0.2853    0.0000 C   0  0  0  0  0  0  0  0  0  0  0  0
   12.2429    0.6920    0.0000 C   0  0  3  0  0  0  0  0  0  0  0  0
   15.5577    1.0284    0.0000 C   0  0  0  0  0  0  0  0  0  0  0  0
   14.0795    1.6865    0.0000 C   0  0  0  0  0  0  0  0  0  0  0  0
   11.3769    3.1920    0.0000 C   0  0  3  0  0  0  0  0  0  0  0  0
   12.2429    3.6920    0.0000 C   0  0  0  0  0  0  0  0  0  0  0  0
   11.3769    2.1920    0.0000 C   0  0  0  0  0  0  0  0  0  0  0  0
   12.2429    4.6920    0.0000 C   0  0  0  0  0  0  0  0  0  0  0  0
   11.3769    0.1920    0.0000 C   0  0  0  0  0  0  0  0  0  0  0  0
    8.7788    3.6920    0.0000 C   0  0  3  0  0  0  0  0  0  0  0  0
    8.7788    4.6920    0.0000 C   0  0  0  0  0  0  0  0  0  0  0  0
    9.6448    3.1920    0.0000 C   0  0  0  0  0  0  0  0  0  0  0  0
   13.1090    5.1920    0.0000 C   0  0  0  0  0  0  0  0  0  0  0  0
   11.3769    5.1920    0.0000 C   0  0  0  0  0  0  0  0  0  0  0  0
   11.3769   -0.8080    0.0000 C   0  0  0  0  0  0  0  0  0  0  0  0
    7.9128    5.1920    0.0000 C   0  0  0  0  0  0  0  0  0  0  0  0
    9.6448    5.1920    0.0000 C   0  0  0  0  0  0  0  0  0  0  0  0
    7.0468    3.6920    0.0000 C   0  0  0  0  0  0  0  0  0  0  0  0
    6.1808    3.1920    0.0000 C   0  0  3  0  0  0  0  0  0  0  0  0
   10.5109   -1.3080    0.0000 C   0  0  0  0  0  0  0  0  0  0  0  0
    6.1808    2.1920    0.0000 C   0  0  0  0  0  0  0  0  0  0  0  0
    4.4487    3.1920    0.0000 C   0  0  0  0  0  0  0  0  0  0  0  0
    9.6448   -2.8080    0.0000 C   0  0  0  0  0  0  0  0  0  0  0  0
    3.5827    3.6920    0.0000 C   0  0  0  0  0  0  0  0  0  0  0  0
    9.6448   -3.8080    0.0000 C   0  0  0  0  0  0  0  0  0  0  0  0
    3.4782    4.6865    0.0000 C   0  0  0  0  0  0  0  0  0  0  0  0
    8.7788   -4.3080    0.0000 C   0  0  0  0  0  0  0  0  0  0  0  0
   10.5109   -4.3080    0.0000 C   0  0  0  0  0  0  0  0  0  0  0  0
    2.5000    4.8944    0.0000 C   0  0  0  0  0  0  0  0  0  0  0  0
    8.7788   -5.3080    0.0000 C   0  0  0  0  0  0  0  0  0  0  0  0
   10.5109   -5.3080    0.0000 C   0  0  0  0  0  0  0  0  0  0  0  0
    9.6448   -5.8080    0.0000 C   0  0  0  0  0  0  0  0  0  0  0  0
    2.0933    5.8080    0.0000 C   0  0  0  0  0  0  0  0  0  0  0  0
   14.0074    0.0729    0.0000 H   0  0  0  0  0  0  0  0  0  0  0  0
   12.7104   -0.2829    0.0000 H   0  0  0  0  0  0  0  0  0  0  0  0
   13.5075   -0.2829    0.0000 H   0  0  0  0  0  0  0  0  0  0  0  0
   14.5785   -0.2517    0.0000 H   0  0  0  0  0  0  0  0  0  0  0  0
   15.3901   -0.0792    0.0000 H   0  0  0  0  0  0  0  0  0  0  0  0
   12.7799    1.0020    0.0000 H   0  0  0  0  0  0  0  0  0  0  0  0
   15.9725    0.5677    0.0000 H   0  0  0  0  0  0  0  0  0  0  0  0
   16.0592    1.3928    0.0000 H   0  0  0  0  0  0  0  0  0  0  0  0
   15.3098    2.4608    0.0000 H   0  0  0  0  0  0  0  0  0  0  0  0
   10.8400    2.8820    0.0000 H   0  0  0  0  0  0  0  0  0  0  0  0
   12.4550    3.1094    0.0000 H   0  0  0  0  0  0  0  0  0  0  0  0
   12.8535    3.7997    0.0000 H   0  0  0  0  0  0  0  0  0  0  0  0
   12.7799    2.0020    0.0000 H   0  0  0  0  0  0  0  0  0  0  0  0
   12.7799    4.3820    0.0000 H   0  0  0  0  0  0  0  0  0  0  0  0
   10.8400    0.5020    0.0000 H   0  0  0  0  0  0  0  0  0  0  0  0
    8.2419    4.0020    0.0000 H   0  0  0  0  0  0  0  0  0  0  0  0
   10.5109    4.3120    0.0000 H   0  0  0  0  0  0  0  0  0  0  0  0
    9.3158    4.3820    0.0000 H   0  0  0  0  0  0  0  0  0  0  0  0
   13.4190    4.6551    0.0000 H   0  0  0  0  0  0  0  0  0  0  0  0
   13.6459    5.5020    0.0000 H   0  0  0  0  0  0  0  0  0  0  0  0
   12.7990    5.7290    0.0000 H   0  0  0  0  0  0  0  0  0  0  0  0
   11.6869    5.7290    0.0000 H   0  0  0  0  0  0  0  0  0  0  0  0
   10.8400    5.5020    0.0000 H   0  0  0  0  0  0  0  0  0  0  0  0
   11.0669    4.6551    0.0000 H   0  0  0  0  0  0  0  0  0  0  0  0
    7.9128    2.5720    0.0000 H   0  0  0  0  0  0  0  0  0  0  0  0
   11.9138   -1.1180    0.0000 H   0  0  0  0  0  0  0  0  0  0  0  0
    8.2228    5.7290    0.0000 H   0  0  0  0  0  0  0  0  0  0  0  0
    7.3759    5.5020    0.0000 H   0  0  0  0  0  0  0  0  0  0  0  0
    7.6028    4.6551    0.0000 H   0  0  0  0  0  0  0  0  0  0  0  0
    9.9548    4.6551    0.0000 H   0  0  0  0  0  0  0  0  0  0  0  0
   10.1818    5.5020    0.0000 H   0  0  0  0  0  0  0  0  0  0  0  0
    9.3348    5.7290    0.0000 H   0  0  0  0  0  0  0  0  0  0  0  0
    6.1808    3.8120    0.0000 H   0  0  0  0  0  0  0  0  0  0  0  0
    5.5608    2.1920    0.0000 H   0  0  0  0  0  0  0  0  0  0  0  0
    6.1808    1.5720    0.0000 H   0  0  0  0  0  0  0  0  0  0  0  0
    6.8008    2.1920    0.0000 H   0  0  0  0  0  0  0  0  0  0  0  0
    5.3147    4.3120    0.0000 H   0  0  0  0  0  0  0  0  0  0  0  0
    9.4328   -2.2254    0.0000 H   0  0  0  0  0  0  0  0  0  0  0  0
    9.0343   -2.9156    0.0000 H   0  0  0  0  0  0  0  0  0  0  0  0
    3.9389    5.1014    0.0000 H   0  0  0  0  0  0  0  0  0  0  0  0
    8.2419   -3.9980    0.0000 H   0  0  0  0  0  0  0  0  0  0  0  0
   11.0478   -3.9980    0.0000 H   0  0  0  0  0  0  0  0  0  0  0  0
    8.2419   -5.6180    0.0000 H   0  0  0  0  0  0  0  0  0  0  0  0
   11.0478   -5.6180    0.0000 H   0  0  0  0  0  0  0  0  0  0  0  0
    2.6597    6.0602    0.0000 H   0  0  0  0  0  0  0  0  0  0  0  0
    1.8411    6.3744    0.0000 H   0  0  0  0  0  0  0  0  0  0  0  0
    1.5269    5.5558    0.0000 H   0  0  0  0  0  0  0  0  0  0  0  0
    9.6448   -6.4280    0.0000 H   0  0  0  0  0  0  0  0  0  0  0  0
  1 20  2  0  0  0  0
  2 23  2  0  0  0  0
  3 28  2  0  0  0  0
  4 36  1  0  0  0  0
  4 39  1  0  0  0  0
  5 34  2  0  0  0  0
  6 36  2  0  0  0  0
  7 38  2  0  0  0  0
  8 14  1  0  0  0  0
  8 45  1  0  0  0  0
  9 19  1  0  0  0  0
  9 20  1  0  0  0  0
  9 58  1  0  0  0  0
 10 18  1  0  0  0  0
 10 23  1  0  0  0  0
 10 62  1  0  0  0  0
 11 21  1  0  0  0  0
 11 28  1  0  0  0  0
 11 66  1  0  0  0  0
 12 26  1  0  0  0  0
 12 34  1  0  0  0  0
 12 74  1  0  0  0  0
 13 35  1  0  0  0  0
 13 38  1  0  0  0  0
 13 86  1  0  0  0  0
 14 40  2  0  0  0  0
 15 16  1  0  0  0  0
 15 17  1  0  0  0  0
 15 20  1  0  0  0  0
 15 50  1  0  0  0  0
 16 18  1  0  0  0  0
 16 51  1  0  0  0  0
 16 52  1  0  0  0  0
 17 19  1  0  0  0  0
 17 53  1  0  0  0  0
 17 54  1  0  0  0  0
 18 25  1  0  0  0  0
 18 55  1  0  0  0  0
 19 56  1  0  0  0  0
 19 57  1  0  0  0  0
 21 22  1  0  0  0  0
 21 23  1  0  0  0  0
 21 59  1  0  0  0  0
 22 24  1  0  0  0  0
 22 60  1  0  0  0  0
 22 61  1  0  0  0  0
 24 29  1  0  0  0  0
 24 30  1  0  0  0  0
 24 63  1  0  0  0  0
 25 31  2  3  0  0  0
 25 64  1  0  0  0  0
 26 27  1  0  0  0  0
 26 28  1  0  0  0  0
 26 65  1  0  0  0  0
 27 32  1  0  0  0  0
 27 33  1  0  0  0  0
 27 67  1  0  0  0  0
 29 68  1  0  0  0  0
 29 69  1  0  0  0  0
 29 70  1  0  0  0  0
 30 71  1  0  0  0  0
 30 72  1  0  0  0  0
 30 73  1  0  0  0  0
 31 36  1  0  0  0  0
 31 75  1  0  0  0  0
 32 76  1  0  0  0  0
 32 77  1  0  0  0  0
 32 78  1  0  0  0  0
 33 79  1  0  0  0  0
 33 80  1  0  0  0  0
 33 81  1  0  0  0  0
 34 35  1  0  0  0  0
 35 37  1  0  0  0  0
 35 82  1  0  0  0  0
 37 83  1  0  0  0  0
 37 84  1  0  0  0  0
 37 85  1  0  0  0  0
 38 40  1  0  0  0  0
 39 41  1  0  0  0  0
 39 87  1  0  0  0  0
 39 88  1  0  0  0  0
 40 42  1  0  0  0  0
 41 43  2  0  0  0  0
 41 44  1  0  0  0  0
 42 45  2  0  0  0  0
 42 89  1  0  0  0  0
 43 46  1  0  0  0  0
 43 90  1  0  0  0  0
 44 47  2  0  0  0  0
 44 91  1  0  0  0  0
 45 49  1  0  0  0  0
 46 48  2  0  0  0  0
 46 92  1  0  0  0  0
 47 48  1  0  0  0  0
 47 93  1  0  0  0  0
 48 97  1  0  0  0  0
 49 94  1  0  0  0  0
 49 95  1  0  0  0  0
 49 96  1  0  0  0  0
M  END
> <PUBCHEM_COMPOUND_CID>
73025171

> <PUBCHEM_COMPOUND_CANONICALIZED>
1

> <PUBCHEM_CACTVS_COMPLEXITY>
1190

> <PUBCHEM_CACTVS_HBOND_ACCEPTOR>
9

> <PUBCHEM_CACTVS_HBOND_DONOR>
5

> <PUBCHEM_CACTVS_ROTATABLE_BOND>
18

> <PUBCHEM_CACTVS_SUBSKEYS>
AAADcfB/vAAAAAAAAAAAAAAAAAAAAWLAAAAwAAAAAAAAAAABwAAAHgAUAAAADSzhngYyjJLQBACpA6XyWgCCAAAmIgAomKG+bNoIZjqAtbuWMYhm1hmI6ce/wCAOAAAAAAAAAAAAAAAAAAAAAAAAAAAAAA==

> <PUBCHEM_IUPAC_OPENEYE_NAME>
benzyl 4-[[4-methyl-2-[[3-methyl-2-[2-[(5-methylisoxazole-3-carbonyl)amino]propanoylamino]butanoyl]amino]pentanoyl]amino]-5-(2-oxopyrrolidin-3-yl)pent-2-enoate

> <PUBCHEM_IUPAC_CAS_NAME>
4-[[4-methyl-2-[[3-methyl-2-[[2-[[(5-methyl-3-isoxazolyl)-oxomethyl]amino]-1-oxopropyl]amino]-1-oxobutyl]amino]-1-oxopentyl]amino]-5-(2-oxo-3-pyrrolidinyl)-2-pentenoic acid (phenylmethyl) ester

> <PUBCHEM_IUPAC_NAME_MARKUP>
benzyl 4-[[4-methyl-2-[[3-methyl-2-[2-[(5-methyl-1,2-oxazole-3-carbonyl)amino]propanoylamino]butanoyl]amino]pentanoyl]amino]-5-(2-oxopyrrolidin-3-yl)pent-2-enoate

> <PUBCHEM_IUPAC_NAME>
benzyl 4-[[4-methyl-2-[[3-methyl-2-[2-[(5-methyl-1,2-oxazole-3-carbonyl)amino]propanoylamino]butanoyl]amino]pentanoyl]amino]-5-(2-oxopyrrolidin-3-yl)pent-2-enoate

> <PUBCHEM_IUPAC_SYSTEMATIC_NAME>
(phenylmethyl) 4-[[4-methyl-2-[[3-methyl-2-[2-[(5-methyl-1,2-oxazol-3-yl)carbonylamino]propanoylamino]butanoyl]amino]pentanoyl]amino]-5-(2-oxidanylidenepyrrolidin-3-yl)pent-2-enoate

> <PUBCHEM_IUPAC_TRADITIONAL_NAME>
5-(2-ketopyrrolidin-3-yl)-4-[[4-methyl-2-[[3-methyl-2-[2-[(5-methylisoxazole-3-carbonyl)amino]propanoylamino]butanoyl]amino]pentanoyl]amino]pent-2-enoic acid benzyl ester

> <PUBCHEM_IUPAC_INCHI>
InChI=1S/C35H48N6O8/c1-20(2)16-27(39-35(47)30(21(3)4)40-31(43)23(6)37-34(46)28-17-22(5)49-41-28)33(45)38-26(18-25-14-15-36-32(25)44)12-13-29(42)48-19-24-10-8-7-9-11-24/h7-13,17,20-21,23,25-27,30H,14-16,18-19H2,1-6H3,(H,36,44)(H,37,46)(H,38,45)(H,39,47)(H,40,43)

> <PUBCHEM_IUPAC_INCHIKEY>
IDBWWEGDLCFCTD-UHFFFAOYSA-N

> <PUBCHEM_XLOGP3_AA>
3.4

> <PUBCHEM_EXACT_MASS>
680.353363

> <PUBCHEM_MOLECULAR_FORMULA>
C35H48N6O8

> <PUBCHEM_MOLECULAR_WEIGHT>
680.8

> <PUBCHEM_OPENEYE_CAN_SMILES>
CC1=CC(=NO1)C(=O)NC(C)C(=O)NC(C(C)C)C(=O)NC(CC(C)C)C(=O)NC(CC2CCNC2=O)C=CC(=O)OCC3=CC=CC=C3

> <PUBCHEM_OPENEYE_ISO_SMILES>
CC1=CC(=NO1)C(=O)NC(C)C(=O)NC(C(C)C)C(=O)NC(CC(C)C)C(=O)NC(CC2CCNC2=O)C=CC(=O)OCC3=CC=CC=C3

> <PUBCHEM_CACTVS_TPSA>
198

> <PUBCHEM_MONOISOTOPIC_WEIGHT>
680.353363

> <PUBCHEM_TOTAL_CHARGE>
0

> <PUBCHEM_HEAVY_ATOM_COUNT>
49

> <PUBCHEM_ATOM_DEF_STEREO_COUNT>
0

> <PUBCHEM_ATOM_UDEF_STEREO_COUNT>
5

> <PUBCHEM_BOND_DEF_STEREO_COUNT>
0

> <PUBCHEM_BOND_UDEF_STEREO_COUNT>
1

> <PUBCHEM_ISOTOPIC_ATOM_COUNT>
0

> <PUBCHEM_COMPONENT_COUNT>
1

> <PUBCHEM_CACTVS_TAUTO_COUNT>
-1

> <PUBCHEM_COORDINATE_TYPE>
1
5
255

> <PUBCHEM_BONDANNOTATIONS>
14  40  8
15  16  3
18  16  3
21  22  3
25  31  1
26  27  3
35  37  3
40  42  8
41  43  8
41  44  8
42  45  8
43  46  8
44  47  8
46  48  8
47  48  8
8  14  8
8  45  8

$$$$
74062695
  -OEChem-02212016592D

 75 78  0     1  0  0  0  0  0999 V2000
    8.1402   -5.8372    0.0000 O   0  0  0  0  0  0  0  0  0  0  0  0
    7.9128   -0.6736    0.0000 O   0  0  0  0  0  0  0  0  0  0  0  0
    4.4487    0.3264    0.0000 O   0  0  0  0  0  0  0  0  0  0  0  0
   10.5109   -1.1736    0.0000 O   0  0  0  0  0  0  0  0  0  0  0  0
   11.3769   -2.6736    0.0000 O   0  0  0  0  0  0  0  0  0  0  0  0
    5.3147    3.8264    0.0000 O   0  0  0  0  0  0  0  0  0  0  0  0
    2.0000    4.1628    0.0000 O   0  0  0  0  0  0  0  0  0  0  0  0
    9.8615   -5.3760    0.0000 N   0  0  0  0  0  0  0  0  0  0  0  0
    7.0468   -2.1736    0.0000 N   0  0  0  0  0  0  0  0  0  0  0  0
    6.1808    0.3264    0.0000 N   0  0  0  0  0  0  0  0  0  0  0  0
    4.4487    2.3264    0.0000 N   0  0  0  0  0  0  0  0  0  0  0  0
    2.6691    3.4197    0.0000 N   0  0  0  0  0  0  0  0  0  0  0  0
    8.7788   -4.1736    0.0000 C   0  0  3  0  0  0  0  0  0  0  0  0
    7.9128   -3.6736    0.0000 C   0  0  0  0  0  0  0  0  0  0  0  0
    9.6924   -3.7668    0.0000 C   0  0  0  0  0  0  0  0  0  0  0  0
    7.9128   -2.6736    0.0000 C   0  0  3  0  0  0  0  0  0  0  0  0
   10.3615   -4.5100    0.0000 C   0  0  0  0  0  0  0  0  0  0  0  0
    8.8834   -5.1681    0.0000 C   0  0  0  0  0  0  0  0  0  0  0  0
    8.7788   -2.1736    0.0000 C   0  0  0  0  0  0  0  0  0  0  0  0
    6.1808   -0.6736    0.0000 C   0  0  3  0  0  0  0  0  0  0  0  0
    7.0468   -1.1736    0.0000 C   0  0  0  0  0  0  0  0  0  0  0  0
    5.3147   -1.1736    0.0000 C   0  0  0  0  0  0  0  0  0  0  0  0
    9.6448   -2.6736    0.0000 C   0  0  0  0  0  0  0  0  0  0  0  0
    5.3147   -2.1736    0.0000 C   0  0  0  0  0  0  0  0  0  0  0  0
    5.3147    0.8264    0.0000 C   0  0  0  0  0  0  0  0  0  0  0  0
    7.0468    0.8264    0.0000 C   0  0  0  0  0  0  0  0  0  0  0  0
    5.3147    1.8264    0.0000 C   0  0  0  0  0  0  0  0  0  0  0  0
   10.5109   -2.1736    0.0000 C   0  0  0  0  0  0  0  0  0  0  0  0
    7.0468    1.8264    0.0000 C   0  0  0  0  0  0  0  0  0  0  0  0
    6.1808    2.3264    0.0000 C   0  0  0  0  0  0  0  0  0  0  0  0
   11.3769   -0.6736    0.0000 C   0  0  0  0  0  0  0  0  0  0  0  0
    4.4487    3.3264    0.0000 C   0  0  0  0  0  0  0  0  0  0  0  0
   11.3769    0.3264    0.0000 C   0  0  0  0  0  0  0  0  0  0  0  0
    3.5827    3.8264    0.0000 C   0  0  0  0  0  0  0  0  0  0  0  0
    3.4782    4.8210    0.0000 C   0  0  0  0  0  0  0  0  0  0  0  0
   12.2429    0.8264    0.0000 C   0  0  0  0  0  0  0  0  0  0  0  0
   10.5109    0.8264    0.0000 C   0  0  0  0  0  0  0  0  0  0  0  0
    2.5000    5.0289    0.0000 C   0  0  0  0  0  0  0  0  0  0  0  0
   12.2429    1.8264    0.0000 C   0  0  0  0  0  0  0  0  0  0  0  0
   10.5109    1.8264    0.0000 C   0  0  0  0  0  0  0  0  0  0  0  0
   11.3769    2.3264    0.0000 C   0  0  0  0  0  0  0  0  0  0  0  0
    2.0933    5.9424    0.0000 C   0  0  0  0  0  0  0  0  0  0  0  0
    8.8113   -3.5544    0.0000 H   0  0  0  0  0  0  0  0  0  0  0  0
    7.3022   -3.5659    0.0000 H   0  0  0  0  0  0  0  0  0  0  0  0
    7.7008   -4.2562    0.0000 H   0  0  0  0  0  0  0  0  0  0  0  0
   10.1940   -3.4024    0.0000 H   0  0  0  0  0  0  0  0  0  0  0  0
    9.3824   -3.2299    0.0000 H   0  0  0  0  0  0  0  0  0  0  0  0
    7.9128   -2.0536    0.0000 H   0  0  0  0  0  0  0  0  0  0  0  0
   10.8631   -4.8744    0.0000 H   0  0  0  0  0  0  0  0  0  0  0  0
   10.7764   -4.0492    0.0000 H   0  0  0  0  0  0  0  0  0  0  0  0
   10.1137   -5.9424    0.0000 H   0  0  0  0  0  0  0  0  0  0  0  0
    6.5098   -2.4836    0.0000 H   0  0  0  0  0  0  0  0  0  0  0  0
    8.7788   -1.5536    0.0000 H   0  0  0  0  0  0  0  0  0  0  0  0
    6.7177   -0.3636    0.0000 H   0  0  0  0  0  0  0  0  0  0  0  0
    5.1027   -0.5910    0.0000 H   0  0  0  0  0  0  0  0  0  0  0  0
    4.7042   -1.2812    0.0000 H   0  0  0  0  0  0  0  0  0  0  0  0
    9.6448   -3.2936    0.0000 H   0  0  0  0  0  0  0  0  0  0  0  0
    4.6947   -2.1736    0.0000 H   0  0  0  0  0  0  0  0  0  0  0  0
    5.3147   -2.7936    0.0000 H   0  0  0  0  0  0  0  0  0  0  0  0
    5.9347   -2.1736    0.0000 H   0  0  0  0  0  0  0  0  0  0  0  0
    7.5837    0.5164    0.0000 H   0  0  0  0  0  0  0  0  0  0  0  0
    7.5837    2.1364    0.0000 H   0  0  0  0  0  0  0  0  0  0  0  0
    6.1808    2.9464    0.0000 H   0  0  0  0  0  0  0  0  0  0  0  0
    3.9118    2.0164    0.0000 H   0  0  0  0  0  0  0  0  0  0  0  0
   11.5890   -1.2562    0.0000 H   0  0  0  0  0  0  0  0  0  0  0  0
   11.9875   -0.5659    0.0000 H   0  0  0  0  0  0  0  0  0  0  0  0
    3.9389    5.2358    0.0000 H   0  0  0  0  0  0  0  0  0  0  0  0
   12.7799    0.5164    0.0000 H   0  0  0  0  0  0  0  0  0  0  0  0
    9.9739    0.5164    0.0000 H   0  0  0  0  0  0  0  0  0  0  0  0
   12.7799    2.1364    0.0000 H   0  0  0  0  0  0  0  0  0  0  0  0
    9.9739    2.1364    0.0000 H   0  0  0  0  0  0  0  0  0  0  0  0
   11.3769    2.9464    0.0000 H   0  0  0  0  0  0  0  0  0  0  0  0
    2.6597    6.1946    0.0000 H   0  0  0  0  0  0  0  0  0  0  0  0
    1.8411    6.5088    0.0000 H   0  0  0  0  0  0  0  0  0  0  0  0
    1.5269    5.6902    0.0000 H   0  0  0  0  0  0  0  0  0  0  0  0
  1 18  2  0  0  0  0
  2 21  2  0  0  0  0
  3 25  2  0  0  0  0
  4 28  1  0  0  0  0
  4 31  1  0  0  0  0
  5 28  2  0  0  0  0
  6 32  2  0  0  0  0
  7 12  1  0  0  0  0
  7 38  1  0  0  0  0
  8 17  1  0  0  0  0
  8 18  1  0  0  0  0
  8 51  1  0  0  0  0
  9 16  1  0  0  0  0
  9 21  1  0  0  0  0
  9 52  1  0  0  0  0
 10 20  1  0  0  0  0
 10 25  1  0  0  0  0
 10 26  1  0  0  0  0
 11 27  1  0  0  0  0
 11 32  1  0  0  0  0
 11 64  1  0  0  0  0
 12 34  2  0  0  0  0
 13 14  1  0  0  0  0
 13 15  1  0  0  0  0
 13 18  1  0  0  0  0
 13 43  1  0  0  0  0
 14 16  1  0  0  0  0
 14 44  1  0  0  0  0
 14 45  1  0  0  0  0
 15 17  1  0  0  0  0
 15 46  1  0  0  0  0
 15 47  1  0  0  0  0
 16 19  1  0  0  0  0
 16 48  1  0  0  0  0
 17 49  1  0  0  0  0
 17 50  1  0  0  0  0
 19 23  2  3  0  0  0
 19 53  1  0  0  0  0
 20 21  1  0  0  0  0
 20 22  1  0  0  0  0
 20 54  1  0  0  0  0
 22 24  1  0  0  0  0
 22 55  1  0  0  0  0
 22 56  1  0  0  0  0
 23 28  1  0  0  0  0
 23 57  1  0  0  0  0
 24 58  1  0  0  0  0
 24 59  1  0  0  0  0
 24 60  1  0  0  0  0
 25 27  1  0  0  0  0
 26 29  2  0  0  0  0
 26 61  1  0  0  0  0
 27 30  2  0  0  0  0
 29 30  1  0  0  0  0
 29 62  1  0  0  0  0
 30 63  1  0  0  0  0
 31 33  1  0  0  0  0
 31 65  1  0  0  0  0
 31 66  1  0  0  0  0
 32 34  1  0  0  0  0
 33 36  2  0  0  0  0
 33 37  1  0  0  0  0
 34 35  1  0  0  0  0
 35 38  2  0  0  0  0
 35 67  1  0  0  0  0
 36 39  1  0  0  0  0
 36 68  1  0  0  0  0
 37 40  2  0  0  0  0
 37 69  1  0  0  0  0
 38 42  1  0  0  0  0
 39 41  2  0  0  0  0
 39 70  1  0  0  0  0
 40 41  1  0  0  0  0
 40 71  1  0  0  0  0
 41 72  1  0  0  0  0
 42 73  1  0  0  0  0
 42 74  1  0  0  0  0
 42 75  1  0  0  0  0
M  END
> <PUBCHEM_COMPOUND_CID>
74062695

> <PUBCHEM_COMPOUND_CANONICALIZED>
1

> <PUBCHEM_CACTVS_COMPLEXITY>
1110

> <PUBCHEM_CACTVS_HBOND_ACCEPTOR>
8

> <PUBCHEM_CACTVS_HBOND_DONOR>
3

> <PUBCHEM_CACTVS_ROTATABLE_BOND>
13

> <PUBCHEM_CACTVS_SUBSKEYS>
AAADcfB7uAAAAAAAAAAAAAAAAAAAAWLAAAAwQAAAAAAAAAABwAAAHgAUAAAADSzhngYyjJPQBACpA6X2WgCCAAAmIgAomKG+bNoIZjqAtbuWMYhm1hmI6ce/wCAOAAAAAAAAAAAAAAAAAAAAAAAAAAAAAA==

> <PUBCHEM_IUPAC_OPENEYE_NAME>
benzyl 4-[2-[3-[(5-methylisoxazole-3-carbonyl)amino]-2-oxo-1-pyridyl]butanoylamino]-5-(2-oxopyrrolidin-3-yl)pent-2-enoate

> <PUBCHEM_IUPAC_CAS_NAME>
4-[[2-[3-[[(5-methyl-3-isoxazolyl)-oxomethyl]amino]-2-oxo-1-pyridinyl]-1-oxobutyl]amino]-5-(2-oxo-3-pyrrolidinyl)-2-pentenoic acid (phenylmethyl) ester

> <PUBCHEM_IUPAC_NAME_MARKUP>
benzyl 4-[2-[3-[(5-methyl-1,2-oxazole-3-carbonyl)amino]-2-oxopyridin-1-yl]butanoylamino]-5-(2-oxopyrrolidin-3-yl)pent-2-enoate

> <PUBCHEM_IUPAC_NAME>
benzyl 4-[2-[3-[(5-methyl-1,2-oxazole-3-carbonyl)amino]-2-oxopyridin-1-yl]butanoylamino]-5-(2-oxopyrrolidin-3-yl)pent-2-enoate

> <PUBCHEM_IUPAC_SYSTEMATIC_NAME>
(phenylmethyl) 4-[2-[3-[(5-methyl-1,2-oxazol-3-yl)carbonylamino]-2-oxidanylidene-pyridin-1-yl]butanoylamino]-5-(2-oxidanylidenepyrrolidin-3-yl)pent-2-enoate

> <PUBCHEM_IUPAC_TRADITIONAL_NAME>
4-[2-[2-keto-3-[(5-methylisoxazole-3-carbonyl)amino]-1-pyridyl]butanoylamino]-5-(2-ketopyrrolidin-3-yl)pent-2-enoic acid benzyl ester

> <PUBCHEM_IUPAC_INCHI>
InChI=1S/C30H33N5O7/c1-3-25(35-15-7-10-23(30(35)40)33-28(38)24-16-19(2)42-34-24)29(39)32-22(17-21-13-14-31-27(21)37)11-12-26(36)41-18-20-8-5-4-6-9-20/h4-12,15-16,21-22,25H,3,13-14,17-18H2,1-2H3,(H,31,37)(H,32,39)(H,33,38)

> <PUBCHEM_IUPAC_INCHIKEY>
JCRZIFCWUXJHSS-UHFFFAOYSA-N

> <PUBCHEM_XLOGP3_AA>
2.3

> <PUBCHEM_EXACT_MASS>
575.237998

> <PUBCHEM_MOLECULAR_FORMULA>
C30H33N5O7

> <PUBCHEM_MOLECULAR_WEIGHT>
575.6

> <PUBCHEM_OPENEYE_CAN_SMILES>
CCC(C(=O)NC(CC1CCNC1=O)C=CC(=O)OCC2=CC=CC=C2)N3C=CC=C(C3=O)NC(=O)C4=NOC(=C4)C

> <PUBCHEM_OPENEYE_ISO_SMILES>
CCC(C(=O)NC(CC1CCNC1=O)C=CC(=O)OCC2=CC=CC=C2)N3C=CC=C(C3=O)NC(=O)C4=NOC(=C4)C

> <PUBCHEM_CACTVS_TPSA>
160

> <PUBCHEM_MONOISOTOPIC_WEIGHT>
575.237998

> <PUBCHEM_TOTAL_CHARGE>
0

> <PUBCHEM_HEAVY_ATOM_COUNT>
42

> <PUBCHEM_ATOM_DEF_STEREO_COUNT>
0

> <PUBCHEM_ATOM_UDEF_STEREO_COUNT>
3

> <PUBCHEM_BOND_DEF_STEREO_COUNT>
0

> <PUBCHEM_BOND_UDEF_STEREO_COUNT>
1

> <PUBCHEM_ISOTOPIC_ATOM_COUNT>
0

> <PUBCHEM_COMPONENT_COUNT>
1

> <PUBCHEM_CACTVS_TAUTO_COUNT>
-1

> <PUBCHEM_COORDINATE_TYPE>
1
5
255

> <PUBCHEM_BONDANNOTATIONS>
10  25  8
10  26  8
12  34  8
13  14  3
16  14  3
19  23  1
20  22  3
25  27  8
26  29  8
27  30  8
29  30  8
33  36  8
33  37  8
34  35  8
35  38  8
36  39  8
37  40  8
39  41  8
40  41  8
7  12  8
7  38  8

$$$$
74241334
  -OEChem-02212016592D

 49 51  0     1  0  0  0  0  0999 V2000
    6.5519   -2.6739    0.0000 O   0  0  0  0  0  0  0  0  0  0  0  0
    4.8198   -2.6739    0.0000 O   0  0  0  0  0  0  0  0  0  0  0  0
    2.2218    1.8261    0.0000 O   0  0  0  0  0  0  0  0  0  0  0  0
    3.5878    4.8649    0.0000 O   0  0  0  0  0  0  0  0  0  0  0  0
    5.6859   -1.1739    0.0000 N   0  0  0  0  0  0  0  0  0  0  0  0
    3.9538    1.8261    0.0000 N   0  0  0  0  0  0  0  0  0  0  0  0
    3.8968    3.9139    0.0000 N   0  0  0  0  0  0  0  0  0  0  0  0
    4.8198    0.3261    0.0000 C   0  0  3  0  0  0  0  0  0  0  0  0
    5.6859    0.8261    0.0000 C   0  0  0  0  0  0  0  0  0  0  0  0
    4.8198   -0.6739    0.0000 C   0  0  0  0  0  0  0  0  0  0  0  0
    6.5519    0.3261    0.0000 C   0  0  0  0  0  0  0  0  0  0  0  0
    6.5519   -0.6739    0.0000 C   0  0  0  0  0  0  0  0  0  0  0  0
    3.9538    0.8261    0.0000 C   0  0  0  0  0  0  0  0  0  0  0  0
    5.6859   -2.1739    0.0000 C   0  0  0  0  0  0  0  0  0  0  0  0
    3.0878    2.3261    0.0000 C   0  0  0  0  0  0  0  0  0  0  0  0
    6.5519   -3.6739    0.0000 C   0  0  0  0  0  0  0  0  0  0  0  0
    3.0878    3.3261    0.0000 C   0  0  0  0  0  0  0  0  0  0  0  0
    7.4179   -4.1739    0.0000 C   0  0  0  0  0  0  0  0  0  0  0  0
    2.2788    3.9139    0.0000 C   0  0  0  0  0  0  0  0  0  0  0  0
    2.5878    4.8649    0.0000 C   0  0  0  0  0  0  0  0  0  0  0  0
    7.4179   -5.1739    0.0000 C   0  0  0  0  0  0  0  0  0  0  0  0
    8.2839   -3.6739    0.0000 C   0  0  0  0  0  0  0  0  0  0  0  0
    8.2839   -5.6739    0.0000 C   0  0  0  0  0  0  0  0  0  0  0  0
    9.1500   -4.1739    0.0000 C   0  0  0  0  0  0  0  0  0  0  0  0
    2.0000    5.6739    0.0000 C   0  0  0  0  0  0  0  0  0  0  0  0
    9.1500   -5.1739    0.0000 C   0  0  0  0  0  0  0  0  0  0  0  0
    4.8198    0.9461    0.0000 H   0  0  0  0  0  0  0  0  0  0  0  0
    6.0844    1.3010    0.0000 H   0  0  0  0  0  0  0  0  0  0  0  0
    5.2873    1.3010    0.0000 H   0  0  0  0  0  0  0  0  0  0  0  0
    4.2093   -0.5663    0.0000 H   0  0  0  0  0  0  0  0  0  0  0  0
    4.6078   -1.2565    0.0000 H   0  0  0  0  0  0  0  0  0  0  0  0
    7.1625    0.2184    0.0000 H   0  0  0  0  0  0  0  0  0  0  0  0
    6.7639    0.9087    0.0000 H   0  0  0  0  0  0  0  0  0  0  0  0
    6.7639   -1.2565    0.0000 H   0  0  0  0  0  0  0  0  0  0  0  0
    7.1625   -0.5663    0.0000 H   0  0  0  0  0  0  0  0  0  0  0  0
    3.3432    0.9337    0.0000 H   0  0  0  0  0  0  0  0  0  0  0  0
    3.7418    0.2435    0.0000 H   0  0  0  0  0  0  0  0  0  0  0  0
    4.4908    2.1361    0.0000 H   0  0  0  0  0  0  0  0  0  0  0  0
    5.9413   -3.5663    0.0000 H   0  0  0  0  0  0  0  0  0  0  0  0
    6.3398   -4.2565    0.0000 H   0  0  0  0  0  0  0  0  0  0  0  0
    1.6891    3.7223    0.0000 H   0  0  0  0  0  0  0  0  0  0  0  0
    6.8810   -5.4839    0.0000 H   0  0  0  0  0  0  0  0  0  0  0  0
    8.2839   -3.0539    0.0000 H   0  0  0  0  0  0  0  0  0  0  0  0
    8.2839   -6.2939    0.0000 H   0  0  0  0  0  0  0  0  0  0  0  0
    9.6869   -3.8639    0.0000 H   0  0  0  0  0  0  0  0  0  0  0  0
    2.5016    6.0384    0.0000 H   0  0  0  0  0  0  0  0  0  0  0  0
    1.6356    6.1755    0.0000 H   0  0  0  0  0  0  0  0  0  0  0  0
    1.4984    5.3095    0.0000 H   0  0  0  0  0  0  0  0  0  0  0  0
    9.6869   -5.4839    0.0000 H   0  0  0  0  0  0  0  0  0  0  0  0
  1 14  1  0  0  0  0
  1 16  1  0  0  0  0
  2 14  2  0  0  0  0
  3 15  2  0  0  0  0
  4  7  1  0  0  0  0
  4 20  1  0  0  0  0
  5 10  1  0  0  0  0
  5 12  1  0  0  0  0
  5 14  1  0  0  0  0
  6 13  1  0  0  0  0
  6 15  1  0  0  0  0
  6 38  1  0  0  0  0
  7 17  2  0  0  0  0
  8  9  1  0  0  0  0
  8 10  1  0  0  0  0
  8 13  1  0  0  0  0
  8 27  1  0  0  0  0
  9 11  1  0  0  0  0
  9 28  1  0  0  0  0
  9 29  1  0  0  0  0
 10 30  1  0  0  0  0
 10 31  1  0  0  0  0
 11 12  1  0  0  0  0
 11 32  1  0  0  0  0
 11 33  1  0  0  0  0
 12 34  1  0  0  0  0
 12 35  1  0  0  0  0
 13 36  1  0  0  0  0
 13 37  1  0  0  0  0
 15 17  1  0  0  0  0
 16 18  1  0  0  0  0
 16 39  1  0  0  0  0
 16 40  1  0  0  0  0
 17 19  1  0  0  0  0
 18 21  2  0  0  0  0
 18 22  1  0  0  0  0
 19 20  2  0  0  0  0
 19 41  1  0  0  0  0
 20 25  1  0  0  0  0
 21 23  1  0  0  0  0
 21 42  1  0  0  0  0
 22 24  2  0  0  0  0
 22 43  1  0  0  0  0
 23 26  2  0  0  0  0
 23 44  1  0  0  0  0
 24 26  1  0  0  0  0
 24 45  1  0  0  0  0
 25 46  1  0  0  0  0
 25 47  1  0  0  0  0
 25 48  1  0  0  0  0
 26 49  1  0  0  0  0
M  END
> <PUBCHEM_COMPOUND_CID>
74241334

> <PUBCHEM_COMPOUND_CANONICALIZED>
1

> <PUBCHEM_CACTVS_COMPLEXITY>
481

> <PUBCHEM_CACTVS_HBOND_ACCEPTOR>
5

> <PUBCHEM_CACTVS_HBOND_DONOR>
1

> <PUBCHEM_CACTVS_ROTATABLE_BOND>
6

> <PUBCHEM_CACTVS_SUBSKEYS>
AAADceB7OAAAAAAAAAAAAAAAAAAAAWAAAAA8QAAAAAAAAAABwAAAHgAUAAAADQzhngYyjJPQBACpA6VyWgCCAAAmIgAomKG+bNoIZjqA9ZucMYhm1hmI6ce/wCAOAAAAAAAAAAAAAAAAAAAAAAAAAAAAAA==

> <PUBCHEM_IUPAC_OPENEYE_NAME>
benzyl 3-[[(5-methylisoxazole-3-carbonyl)amino]methyl]piperidine-1-carboxylate

> <PUBCHEM_IUPAC_CAS_NAME>
3-[[[(5-methyl-3-isoxazolyl)-oxomethyl]amino]methyl]-1-piperidinecarboxylic acid (phenylmethyl) ester

> <PUBCHEM_IUPAC_NAME_MARKUP>
benzyl 3-[[(5-methyl-1,2-oxazole-3-carbonyl)amino]methyl]piperidine-1-carboxylate

> <PUBCHEM_IUPAC_NAME>
benzyl 3-[[(5-methyl-1,2-oxazole-3-carbonyl)amino]methyl]piperidine-1-carboxylate

> <PUBCHEM_IUPAC_SYSTEMATIC_NAME>
(phenylmethyl) 3-[[(5-methyl-1,2-oxazol-3-yl)carbonylamino]methyl]piperidine-1-carboxylate

> <PUBCHEM_IUPAC_TRADITIONAL_NAME>
3-[[(5-methylisoxazole-3-carbonyl)amino]methyl]piperidine-1-carboxylic acid benzyl ester

> <PUBCHEM_IUPAC_INCHI>
InChI=1S/C19H23N3O4/c1-14-10-17(21-26-14)18(23)20-11-16-8-5-9-22(12-16)19(24)25-13-15-6-3-2-4-7-15/h2-4,6-7,10,16H,5,8-9,11-13H2,1H3,(H,20,23)

> <PUBCHEM_IUPAC_INCHIKEY>
KIGJZBYJWFBJTC-UHFFFAOYSA-N

> <PUBCHEM_XLOGP3_AA>
2.5

> <PUBCHEM_EXACT_MASS>
357.168856

> <PUBCHEM_MOLECULAR_FORMULA>
C19H23N3O4

> <PUBCHEM_MOLECULAR_WEIGHT>
357.4

> <PUBCHEM_OPENEYE_CAN_SMILES>
CC1=CC(=NO1)C(=O)NCC2CCCN(C2)C(=O)OCC3=CC=CC=C3

> <PUBCHEM_OPENEYE_ISO_SMILES>
CC1=CC(=NO1)C(=O)NCC2CCCN(C2)C(=O)OCC3=CC=CC=C3

> <PUBCHEM_CACTVS_TPSA>
84.7

> <PUBCHEM_MONOISOTOPIC_WEIGHT>
357.168856

> <PUBCHEM_TOTAL_CHARGE>
0

> <PUBCHEM_HEAVY_ATOM_COUNT>
26

> <PUBCHEM_ATOM_DEF_STEREO_COUNT>
0

> <PUBCHEM_ATOM_UDEF_STEREO_COUNT>
1

> <PUBCHEM_BOND_DEF_STEREO_COUNT>
0

> <PUBCHEM_BOND_UDEF_STEREO_COUNT>
0

> <PUBCHEM_ISOTOPIC_ATOM_COUNT>
0

> <PUBCHEM_COMPONENT_COUNT>
1

> <PUBCHEM_CACTVS_TAUTO_COUNT>
-1

> <PUBCHEM_COORDINATE_TYPE>
1
5
255

> <PUBCHEM_BONDANNOTATIONS>
17  19  8
18  21  8
18  22  8
19  20  8
21  23  8
22  24  8
23  26  8
24  26  8
4  20  8
4  7  8
7  17  8
8  13  3

$$$$
78412247
  -OEChem-02212016592D

 74 76  0     1  0  0  0  0  0999 V2000
    7.0468   -2.3080    0.0000 O   0  0  0  0  0  0  0  0  0  0  0  0
    4.4487    0.1920    0.0000 O   0  0  0  0  0  0  0  0  0  0  0  0
   11.3769    0.1920    0.0000 O   0  0  0  0  0  0  0  0  0  0  0  0
   10.5109   -4.3080    0.0000 O   0  0  0  0  0  0  0  0  0  0  0  0
    5.3147    3.6920    0.0000 O   0  0  0  0  0  0  0  0  0  0  0  0
    8.7788   -4.3080    0.0000 O   0  0  0  0  0  0  0  0  0  0  0  0
    2.0000    4.0284    0.0000 O   0  0  0  0  0  0  0  0  0  0  0  0
    6.1808    0.1920    0.0000 N   0  0  0  0  0  0  0  0  0  0  0  0
    7.9128   -0.8080    0.0000 N   0  0  0  0  0  0  0  0  0  0  0  0
    4.4487    2.1920    0.0000 N   0  0  0  0  0  0  0  0  0  0  0  0
   12.2429   -1.3080    0.0000 N   0  0  0  0  0  0  0  0  0  0  0  0
    2.6691    3.2853    0.0000 N   0  0  0  0  0  0  0  0  0  0  0  0
    6.1808   -0.8080    0.0000 C   0  0  3  0  0  0  0  0  0  0  0  0
    5.3147   -1.3080    0.0000 C   0  0  0  0  0  0  0  0  0  0  0  0
    8.7788   -1.3080    0.0000 C   0  0  3  0  0  0  0  0  0  0  0  0
    7.0468   -1.3080    0.0000 C   0  0  0  0  0  0  0  0  0  0  0  0
    9.6448   -0.8080    0.0000 C   0  0  0  0  0  0  0  0  0  0  0  0
    5.3147   -2.3080    0.0000 C   0  0  0  0  0  0  0  0  0  0  0  0
    5.3147    0.6920    0.0000 C   0  0  0  0  0  0  0  0  0  0  0  0
    7.0468    0.6920    0.0000 C   0  0  0  0  0  0  0  0  0  0  0  0
    5.3147    1.6920    0.0000 C   0  0  0  0  0  0  0  0  0  0  0  0
   10.5109   -1.3080    0.0000 C   0  0  0  0  0  0  0  0  0  0  0  0
    6.1808    2.1920    0.0000 C   0  0  0  0  0  0  0  0  0  0  0  0
    8.7788   -2.3080    0.0000 C   0  0  0  0  0  0  0  0  0  0  0  0
    7.0468    1.6920    0.0000 C   0  0  0  0  0  0  0  0  0  0  0  0
    4.4487   -2.8080    0.0000 C   0  0  0  0  0  0  0  0  0  0  0  0
    6.1808   -2.8080    0.0000 C   0  0  0  0  0  0  0  0  0  0  0  0
    6.1808    3.1920    0.0000 C   0  0  0  0  0  0  0  0  0  0  0  0
   11.3769   -0.8080    0.0000 C   0  0  0  0  0  0  0  0  0  0  0  0
    4.4487   -3.8080    0.0000 C   0  0  0  0  0  0  0  0  0  0  0  0
    6.1808   -3.8080    0.0000 C   0  0  0  0  0  0  0  0  0  0  0  0
    9.6448   -2.8080    0.0000 C   0  0  0  0  0  0  0  0  0  0  0  0
    5.3147   -4.3080    0.0000 C   0  0  0  0  0  0  0  0  0  0  0  0
    4.4487    3.1920    0.0000 C   0  0  0  0  0  0  0  0  0  0  0  0
    9.6448   -3.8080    0.0000 C   0  0  0  0  0  0  0  0  0  0  0  0
    3.5827    3.6920    0.0000 C   0  0  0  0  0  0  0  0  0  0  0  0
    3.4782    4.6865    0.0000 C   0  0  0  0  0  0  0  0  0  0  0  0
    2.5000    4.8944    0.0000 C   0  0  0  0  0  0  0  0  0  0  0  0
   10.5109   -5.3080    0.0000 C   0  0  0  0  0  0  0  0  0  0  0  0
    2.0933    5.8080    0.0000 C   0  0  0  0  0  0  0  0  0  0  0  0
   11.3769   -5.8080    0.0000 C   0  0  0  0  0  0  0  0  0  0  0  0
    6.7177   -0.4980    0.0000 H   0  0  0  0  0  0  0  0  0  0  0  0
    5.1027   -0.7254    0.0000 H   0  0  0  0  0  0  0  0  0  0  0  0
    4.7042   -1.4156    0.0000 H   0  0  0  0  0  0  0  0  0  0  0  0
    8.2419   -1.6180    0.0000 H   0  0  0  0  0  0  0  0  0  0  0  0
    7.9128   -0.1880    0.0000 H   0  0  0  0  0  0  0  0  0  0  0  0
   10.0434   -0.3330    0.0000 H   0  0  0  0  0  0  0  0  0  0  0  0
    9.2463   -0.3330    0.0000 H   0  0  0  0  0  0  0  0  0  0  0  0
    7.5837    0.3820    0.0000 H   0  0  0  0  0  0  0  0  0  0  0  0
   10.1124   -1.7829    0.0000 H   0  0  0  0  0  0  0  0  0  0  0  0
   10.9094   -1.7829    0.0000 H   0  0  0  0  0  0  0  0  0  0  0  0
    8.2419   -2.6180    0.0000 H   0  0  0  0  0  0  0  0  0  0  0  0
    7.5837    2.0020    0.0000 H   0  0  0  0  0  0  0  0  0  0  0  0
    3.9118   -2.4980    0.0000 H   0  0  0  0  0  0  0  0  0  0  0  0
    6.7177   -2.4980    0.0000 H   0  0  0  0  0  0  0  0  0  0  0  0
    6.8008    3.1920    0.0000 H   0  0  0  0  0  0  0  0  0  0  0  0
    6.1808    3.8120    0.0000 H   0  0  0  0  0  0  0  0  0  0  0  0
    5.5608    3.1920    0.0000 H   0  0  0  0  0  0  0  0  0  0  0  0
    3.9118    1.8820    0.0000 H   0  0  0  0  0  0  0  0  0  0  0  0
    3.9118   -4.1180    0.0000 H   0  0  0  0  0  0  0  0  0  0  0  0
    6.7177   -4.1180    0.0000 H   0  0  0  0  0  0  0  0  0  0  0  0
   10.1818   -2.4980    0.0000 H   0  0  0  0  0  0  0  0  0  0  0  0
    5.3147   -4.9280    0.0000 H   0  0  0  0  0  0  0  0  0  0  0  0
   12.7799   -0.9980    0.0000 H   0  0  0  0  0  0  0  0  0  0  0  0
   12.2429   -1.9280    0.0000 H   0  0  0  0  0  0  0  0  0  0  0  0
    3.9389    5.1014    0.0000 H   0  0  0  0  0  0  0  0  0  0  0  0
    9.9003   -5.2003    0.0000 H   0  0  0  0  0  0  0  0  0  0  0  0
   10.2988   -5.8906    0.0000 H   0  0  0  0  0  0  0  0  0  0  0  0
    2.6597    6.0602    0.0000 H   0  0  0  0  0  0  0  0  0  0  0  0
    1.8411    6.3744    0.0000 H   0  0  0  0  0  0  0  0  0  0  0  0
    1.5269    5.5558    0.0000 H   0  0  0  0  0  0  0  0  0  0  0  0
   11.0669   -6.3449    0.0000 H   0  0  0  0  0  0  0  0  0  0  0  0
   11.9138   -6.1180    0.0000 H   0  0  0  0  0  0  0  0  0  0  0  0
   11.6869   -5.2710    0.0000 H   0  0  0  0  0  0  0  0  0  0  0  0
  1 16  2  0  0  0  0
  2 19  2  0  0  0  0
  3 29  2  0  0  0  0
  4 35  1  0  0  0  0
  4 39  1  0  0  0  0
  5 34  2  0  0  0  0
  6 35  2  0  0  0  0
  7 12  1  0  0  0  0
  7 38  1  0  0  0  0
  8 13  1  0  0  0  0
  8 19  1  0  0  0  0
  8 20  1  0  0  0  0
  9 15  1  0  0  0  0
  9 16  1  0  0  0  0
  9 46  1  0  0  0  0
 10 21  1  0  0  0  0
 10 34  1  0  0  0  0
 10 59  1  0  0  0  0
 11 29  1  0  0  0  0
 11 64  1  0  0  0  0
 11 65  1  0  0  0  0
 12 36  2  0  0  0  0
 13 14  1  0  0  0  0
 13 16  1  0  0  0  0
 13 42  1  0  0  0  0
 14 18  1  0  0  0  0
 14 43  1  0  0  0  0
 14 44  1  0  0  0  0
 15 17  1  0  0  0  0
 15 24  1  0  0  0  0
 15 45  1  0  0  0  0
 17 22  1  0  0  0  0
 17 47  1  0  0  0  0
 17 48  1  0  0  0  0
 18 26  2  0  0  0  0
 18 27  1  0  0  0  0
 19 21  1  0  0  0  0
 20 25  2  0  0  0  0
 20 49  1  0  0  0  0
 21 23  2  0  0  0  0
 22 29  1  0  0  0  0
 22 50  1  0  0  0  0
 22 51  1  0  0  0  0
 23 25  1  0  0  0  0
 23 28  1  0  0  0  0
 24 32  2  3  0  0  0
 24 52  1  0  0  0  0
 25 53  1  0  0  0  0
 26 30  1  0  0  0  0
 26 54  1  0  0  0  0
 27 31  2  0  0  0  0
 27 55  1  0  0  0  0
 28 56  1  0  0  0  0
 28 57  1  0  0  0  0
 28 58  1  0  0  0  0
 30 33  2  0  0  0  0
 30 60  1  0  0  0  0
 31 33  1  0  0  0  0
 31 61  1  0  0  0  0
 32 35  1  0  0  0  0
 32 62  1  0  0  0  0
 33 63  1  0  0  0  0
 34 36  1  0  0  0  0
 36 37  1  0  0  0  0
 37 38  2  0  0  0  0
 37 66  1  0  0  0  0
 38 40  1  0  0  0  0
 39 41  1  0  0  0  0
 39 67  1  0  0  0  0
 39 68  1  0  0  0  0
 40 69  1  0  0  0  0
 40 70  1  0  0  0  0
 40 71  1  0  0  0  0
 41 72  1  0  0  0  0
 41 73  1  0  0  0  0
 41 74  1  0  0  0  0
M  END
> <PUBCHEM_COMPOUND_CID>
78412247

> <PUBCHEM_COMPOUND_CANONICALIZED>
1

> <PUBCHEM_CACTVS_COMPLEXITY>
1080

> <PUBCHEM_CACTVS_HBOND_ACCEPTOR>
8

> <PUBCHEM_CACTVS_HBOND_DONOR>
3

> <PUBCHEM_CACTVS_ROTATABLE_BOND>
14

> <PUBCHEM_CACTVS_SUBSKEYS>
AAADcfB7uAAAAAAAAAAAAAAAAAAAAWAAAAAwQAAAAAAAAAABwAAAHgAUAAAADCzhngYyjJPQBACpA6X2WgCCAAAmIgAomKG+bNoIZjqAtbOWMYhmlhiI6cc/iICOAAAAAAAAAAAAAAAAAAAAAAAAAAAAAA==

> <PUBCHEM_IUPAC_OPENEYE_NAME>
ethyl 7-amino-4-[[2-[4-methyl-3-[(5-methylisoxazole-3-carbonyl)amino]-2-oxo-1-pyridyl]-3-phenyl-propanoyl]amino]-7-oxo-hept-2-enoate

> <PUBCHEM_IUPAC_CAS_NAME>
7-amino-4-[[2-[4-methyl-3-[[(5-methyl-3-isoxazolyl)-oxomethyl]amino]-2-oxo-1-pyridinyl]-1-oxo-3-phenylpropyl]amino]-7-oxo-2-heptenoic acid ethyl ester

> <PUBCHEM_IUPAC_NAME_MARKUP>
ethyl 7-amino-4-[[2-[4-methyl-3-[(5-methyl-1,2-oxazole-3-carbonyl)amino]-2-oxopyridin-1-yl]-3-phenylpropanoyl]amino]-7-oxohept-2-enoate

> <PUBCHEM_IUPAC_NAME>
ethyl 7-amino-4-[[2-[4-methyl-3-[(5-methyl-1,2-oxazole-3-carbonyl)amino]-2-oxopyridin-1-yl]-3-phenylpropanoyl]amino]-7-oxohept-2-enoate

> <PUBCHEM_IUPAC_SYSTEMATIC_NAME>
ethyl 7-azanyl-4-[[2-[4-methyl-3-[(5-methyl-1,2-oxazol-3-yl)carbonylamino]-2-oxidanylidene-pyridin-1-yl]-3-phenyl-propanoyl]amino]-7-oxidanylidene-hept-2-enoate

> <PUBCHEM_IUPAC_TRADITIONAL_NAME>
7-amino-7-keto-4-[[2-[2-keto-4-methyl-3-[(5-methylisoxazole-3-carbonyl)amino]-1-pyridyl]-3-phenyl-propanoyl]amino]hept-2-enoic acid ethyl ester

> <PUBCHEM_IUPAC_INCHI>
InChI=1S/C29H33N5O7/c1-4-40-25(36)13-11-21(10-12-24(30)35)31-28(38)23(17-20-8-6-5-7-9-20)34-15-14-18(2)26(29(34)39)32-27(37)22-16-19(3)41-33-22/h5-9,11,13-16,21,23H,4,10,12,17H2,1-3H3,(H2,30,35)(H,31,38)(H,32,37)

> <PUBCHEM_IUPAC_INCHIKEY>
PMLXJMVSESGFEC-UHFFFAOYSA-N

> <PUBCHEM_XLOGP3_AA>
1.6

> <PUBCHEM_EXACT_MASS>
563.237998

> <PUBCHEM_MOLECULAR_FORMULA>
C29H33N5O7

> <PUBCHEM_MOLECULAR_WEIGHT>
563.6

> <PUBCHEM_OPENEYE_CAN_SMILES>
CCOC(=O)C=CC(CCC(=O)N)NC(=O)C(CC1=CC=CC=C1)N2C=CC(=C(C2=O)NC(=O)C3=NOC(=C3)C)C

> <PUBCHEM_OPENEYE_ISO_SMILES>
CCOC(=O)C=CC(CCC(=O)N)NC(=O)C(CC1=CC=CC=C1)N2C=CC(=C(C2=O)NC(=O)C3=NOC(=C3)C)C

> <PUBCHEM_CACTVS_TPSA>
174

> <PUBCHEM_MONOISOTOPIC_WEIGHT>
563.237998

> <PUBCHEM_TOTAL_CHARGE>
0

> <PUBCHEM_HEAVY_ATOM_COUNT>
41

> <PUBCHEM_ATOM_DEF_STEREO_COUNT>
0

> <PUBCHEM_ATOM_UDEF_STEREO_COUNT>
2

> <PUBCHEM_BOND_DEF_STEREO_COUNT>
0

> <PUBCHEM_BOND_UDEF_STEREO_COUNT>
1

> <PUBCHEM_ISOTOPIC_ATOM_COUNT>
0

> <PUBCHEM_COMPONENT_COUNT>
1

> <PUBCHEM_CACTVS_TAUTO_COUNT>
-1

> <PUBCHEM_COORDINATE_TYPE>
1
5
255

> <PUBCHEM_BONDANNOTATIONS>
12  36  8
13  14  3
15  17  3
18  26  8
18  27  8
19  21  8
20  25  8
21  23  8
23  25  8
24  32  1
26  30  8
27  31  8
30  33  8
31  33  8
36  37  8
37  38  8
7  12  8
7  38  8
8  19  8
8  20  8

$$$$
78412248
  -OEChem-02212016592D

 75 78  0     1  0  0  0  0  0999 V2000
    5.3147   -5.3080    0.0000 F   0  0  0  0  0  0  0  0  0  0  0  0
   11.6323    0.0769    0.0000 O   0  0  0  0  0  0  0  0  0  0  0  0
    7.0468   -2.3080    0.0000 O   0  0  0  0  0  0  0  0  0  0  0  0
    4.4487    0.1920    0.0000 O   0  0  0  0  0  0  0  0  0  0  0  0
   10.5109   -4.3080    0.0000 O   0  0  0  0  0  0  0  0  0  0  0  0
    8.7788   -4.3080    0.0000 O   0  0  0  0  0  0  0  0  0  0  0  0
    5.3147    3.6920    0.0000 O   0  0  0  0  0  0  0  0  0  0  0  0
    2.0000    4.0284    0.0000 O   0  0  0  0  0  0  0  0  0  0  0  0
   12.0936   -1.6444    0.0000 N   0  0  0  0  0  0  0  0  0  0  0  0
    7.9128   -0.8080    0.0000 N   0  0  0  0  0  0  0  0  0  0  0  0
    6.1808    0.1920    0.0000 N   0  0  0  0  0  0  0  0  0  0  0  0
    4.4487    2.1920    0.0000 N   0  0  0  0  0  0  0  0  0  0  0  0
    2.6691    3.2853    0.0000 N   0  0  0  0  0  0  0  0  0  0  0  0
   10.5109   -1.3080    0.0000 C   0  0  3  0  0  0  0  0  0  0  0  0
    9.6448   -0.8080    0.0000 C   0  0  0  0  0  0  0  0  0  0  0  0
   10.6154   -2.3025    0.0000 C   0  0  0  0  0  0  0  0  0  0  0  0
    8.7788   -1.3080    0.0000 C   0  0  3  0  0  0  0  0  0  0  0  0
   11.5936   -2.5104    0.0000 C   0  0  0  0  0  0  0  0  0  0  0  0
   11.4244   -0.9013    0.0000 C   0  0  0  0  0  0  0  0  0  0  0  0
    6.1808   -0.8080    0.0000 C   0  0  3  0  0  0  0  0  0  0  0  0
    8.7788   -2.3080    0.0000 C   0  0  0  0  0  0  0  0  0  0  0  0
    7.0468   -1.3080    0.0000 C   0  0  0  0  0  0  0  0  0  0  0  0
    5.3147   -1.3080    0.0000 C   0  0  0  0  0  0  0  0  0  0  0  0
    9.6448   -2.8080    0.0000 C   0  0  0  0  0  0  0  0  0  0  0  0
    5.3147   -2.3080    0.0000 C   0  0  0  0  0  0  0  0  0  0  0  0
    5.3147    0.6920    0.0000 C   0  0  0  0  0  0  0  0  0  0  0  0
    7.0468    0.6920    0.0000 C   0  0  0  0  0  0  0  0  0  0  0  0
    5.3147    1.6920    0.0000 C   0  0  0  0  0  0  0  0  0  0  0  0
    6.1808   -2.8080    0.0000 C   0  0  0  0  0  0  0  0  0  0  0  0
    4.4487   -2.8080    0.0000 C   0  0  0  0  0  0  0  0  0  0  0  0
    7.0468    1.6920    0.0000 C   0  0  0  0  0  0  0  0  0  0  0  0
    9.6448   -3.8080    0.0000 C   0  0  0  0  0  0  0  0  0  0  0  0
    6.1808    2.1920    0.0000 C   0  0  0  0  0  0  0  0  0  0  0  0
    6.1808   -3.8080    0.0000 C   0  0  0  0  0  0  0  0  0  0  0  0
    4.4487   -3.8080    0.0000 C   0  0  0  0  0  0  0  0  0  0  0  0
    5.3147   -4.3080    0.0000 C   0  0  0  0  0  0  0  0  0  0  0  0
    4.4487    3.1920    0.0000 C   0  0  0  0  0  0  0  0  0  0  0  0
   10.5109   -5.3080    0.0000 C   0  0  0  0  0  0  0  0  0  0  0  0
    3.5827    3.6920    0.0000 C   0  0  0  0  0  0  0  0  0  0  0  0
   11.3769   -5.8080    0.0000 C   0  0  0  0  0  0  0  0  0  0  0  0
    3.4782    4.6865    0.0000 C   0  0  0  0  0  0  0  0  0  0  0  0
    2.5000    4.8944    0.0000 C   0  0  0  0  0  0  0  0  0  0  0  0
    2.0933    5.8080    0.0000 C   0  0  0  0  0  0  0  0  0  0  0  0
   10.5433   -0.6888    0.0000 H   0  0  0  0  0  0  0  0  0  0  0  0
   10.0434   -0.3330    0.0000 H   0  0  0  0  0  0  0  0  0  0  0  0
    9.2463   -0.3330    0.0000 H   0  0  0  0  0  0  0  0  0  0  0  0
    9.9954   -2.3025    0.0000 H   0  0  0  0  0  0  0  0  0  0  0  0
   10.5506   -2.9191    0.0000 H   0  0  0  0  0  0  0  0  0  0  0  0
    8.2419   -1.6180    0.0000 H   0  0  0  0  0  0  0  0  0  0  0  0
   11.4020   -3.1001    0.0000 H   0  0  0  0  0  0  0  0  0  0  0  0
   12.1600   -2.7626    0.0000 H   0  0  0  0  0  0  0  0  0  0  0  0
   12.7102   -1.5796    0.0000 H   0  0  0  0  0  0  0  0  0  0  0  0
    7.9128   -0.1880    0.0000 H   0  0  0  0  0  0  0  0  0  0  0  0
    6.7177   -0.4980    0.0000 H   0  0  0  0  0  0  0  0  0  0  0  0
    8.2419   -2.6180    0.0000 H   0  0  0  0  0  0  0  0  0  0  0  0
    5.1027   -0.7254    0.0000 H   0  0  0  0  0  0  0  0  0  0  0  0
    4.7042   -1.4156    0.0000 H   0  0  0  0  0  0  0  0  0  0  0  0
   10.1818   -2.4980    0.0000 H   0  0  0  0  0  0  0  0  0  0  0  0
    7.5837    0.3820    0.0000 H   0  0  0  0  0  0  0  0  0  0  0  0
    6.7177   -2.4980    0.0000 H   0  0  0  0  0  0  0  0  0  0  0  0
    3.9118   -2.4980    0.0000 H   0  0  0  0  0  0  0  0  0  0  0  0
    7.5837    2.0020    0.0000 H   0  0  0  0  0  0  0  0  0  0  0  0
    6.1808    2.8120    0.0000 H   0  0  0  0  0  0  0  0  0  0  0  0
    6.7177   -4.1180    0.0000 H   0  0  0  0  0  0  0  0  0  0  0  0
    3.9118   -4.1180    0.0000 H   0  0  0  0  0  0  0  0  0  0  0  0
    3.9118    1.8820    0.0000 H   0  0  0  0  0  0  0  0  0  0  0  0
    9.9003   -5.2003    0.0000 H   0  0  0  0  0  0  0  0  0  0  0  0
   10.2988   -5.8906    0.0000 H   0  0  0  0  0  0  0  0  0  0  0  0
   11.0669   -6.3449    0.0000 H   0  0  0  0  0  0  0  0  0  0  0  0
   11.9138   -6.1180    0.0000 H   0  0  0  0  0  0  0  0  0  0  0  0
   11.6869   -5.2710    0.0000 H   0  0  0  0  0  0  0  0  0  0  0  0
    3.9389    5.1014    0.0000 H   0  0  0  0  0  0  0  0  0  0  0  0
    2.6597    6.0602    0.0000 H   0  0  0  0  0  0  0  0  0  0  0  0
    1.8411    6.3744    0.0000 H   0  0  0  0  0  0  0  0  0  0  0  0
    1.5269    5.5558    0.0000 H   0  0  0  0  0  0  0  0  0  0  0  0
  1 36  1  0  0  0  0
  2 19  2  0  0  0  0
  3 22  2  0  0  0  0
  4 26  2  0  0  0  0
  5 32  1  0  0  0  0
  5 38  1  0  0  0  0
  6 32  2  0  0  0  0
  7 37  2  0  0  0  0
  8 13  1  0  0  0  0
  8 42  1  0  0  0  0
  9 18  1  0  0  0  0
  9 19  1  0  0  0  0
  9 52  1  0  0  0  0
 10 17  1  0  0  0  0
 10 22  1  0  0  0  0
 10 53  1  0  0  0  0
 11 20  1  0  0  0  0
 11 26  1  0  0  0  0
 11 27  1  0  0  0  0
 12 28  1  0  0  0  0
 12 37  1  0  0  0  0
 12 66  1  0  0  0  0
 13 39  2  0  0  0  0
 14 15  1  0  0  0  0
 14 16  1  0  0  0  0
 14 19  1  0  0  0  0
 14 44  1  0  0  0  0
 15 17  1  0  0  0  0
 15 45  1  0  0  0  0
 15 46  1  0  0  0  0
 16 18  1  0  0  0  0
 16 47  1  0  0  0  0
 16 48  1  0  0  0  0
 17 21  1  0  0  0  0
 17 49  1  0  0  0  0
 18 50  1  0  0  0  0
 18 51  1  0  0  0  0
 20 22  1  0  0  0  0
 20 23  1  0  0  0  0
 20 54  1  0  0  0  0
 21 24  2  3  0  0  0
 21 55  1  0  0  0  0
 23 25  1  0  0  0  0
 23 56  1  0  0  0  0
 23 57  1  0  0  0  0
 24 32  1  0  0  0  0
 24 58  1  0  0  0  0
 25 29  2  0  0  0  0
 25 30  1  0  0  0  0
 26 28  1  0  0  0  0
 27 31  2  0  0  0  0
 27 59  1  0  0  0  0
 28 33  2  0  0  0  0
 29 34  1  0  0  0  0
 29 60  1  0  0  0  0
 30 35  2  0  0  0  0
 30 61  1  0  0  0  0
 31 33  1  0  0  0  0
 31 62  1  0  0  0  0
 33 63  1  0  0  0  0
 34 36  2  0  0  0  0
 34 64  1  0  0  0  0
 35 36  1  0  0  0  0
 35 65  1  0  0  0  0
 37 39  1  0  0  0  0
 38 40  1  0  0  0  0
 38 67  1  0  0  0  0
 38 68  1  0  0  0  0
 39 41  1  0  0  0  0
 40 69  1  0  0  0  0
 40 70  1  0  0  0  0
 40 71  1  0  0  0  0
 41 42  2  0  0  0  0
 41 72  1  0  0  0  0
 42 43  1  0  0  0  0
 43 73  1  0  0  0  0
 43 74  1  0  0  0  0
 43 75  1  0  0  0  0
M  END
> <PUBCHEM_COMPOUND_CID>
78412248

> <PUBCHEM_COMPOUND_CANONICALIZED>
1

> <PUBCHEM_CACTVS_COMPLEXITY>
1150

> <PUBCHEM_CACTVS_HBOND_ACCEPTOR>
9

> <PUBCHEM_CACTVS_HBOND_DONOR>
3

> <PUBCHEM_CACTVS_ROTATABLE_BOND>
13

> <PUBCHEM_CACTVS_SUBSKEYS>
AAADcfB7uQAAAAAAAAAAAAAAAAAAAWLAAAAwQAAAAAAAAAABwAAAHwAUAAAADSzhng4yjJPQBACpA6X2WgCCAAAmIgAomKG+bNoIZjqAtbOWMYhmlhiI6cc/iICOAAAAAAAAAAAAAAAAAAAAAAAAAAAAAA==

> <PUBCHEM_IUPAC_OPENEYE_NAME>
ethyl 4-[[3-(4-fluorophenyl)-2-[3-[(5-methylisoxazole-3-carbonyl)amino]-2-oxo-1-pyridyl]propanoyl]amino]-5-(2-oxopyrrolidin-3-yl)pent-2-enoate

> <PUBCHEM_IUPAC_CAS_NAME>
4-[[3-(4-fluorophenyl)-2-[3-[[(5-methyl-3-isoxazolyl)-oxomethyl]amino]-2-oxo-1-pyridinyl]-1-oxopropyl]amino]-5-(2-oxo-3-pyrrolidinyl)-2-pentenoic acid ethyl ester

> <PUBCHEM_IUPAC_NAME_MARKUP>
ethyl 4-[[3-(4-fluorophenyl)-2-[3-[(5-methyl-1,2-oxazole-3-carbonyl)amino]-2-oxopyridin-1-yl]propanoyl]amino]-5-(2-oxopyrrolidin-3-yl)pent-2-enoate

> <PUBCHEM_IUPAC_NAME>
ethyl 4-[[3-(4-fluorophenyl)-2-[3-[(5-methyl-1,2-oxazole-3-carbonyl)amino]-2-oxopyridin-1-yl]propanoyl]amino]-5-(2-oxopyrrolidin-3-yl)pent-2-enoate

> <PUBCHEM_IUPAC_SYSTEMATIC_NAME>
ethyl 4-[[3-(4-fluorophenyl)-2-[3-[(5-methyl-1,2-oxazol-3-yl)carbonylamino]-2-oxidanylidene-pyridin-1-yl]propanoyl]amino]-5-(2-oxidanylidenepyrrolidin-3-yl)pent-2-enoate

> <PUBCHEM_IUPAC_TRADITIONAL_NAME>
4-[[3-(4-fluorophenyl)-2-[2-keto-3-[(5-methylisoxazole-3-carbonyl)amino]-1-pyridyl]propanoyl]amino]-5-(2-ketopyrrolidin-3-yl)pent-2-enoic acid ethyl ester

> <PUBCHEM_IUPAC_INCHI>
InChI=1S/C30H32FN5O7/c1-3-42-26(37)11-10-22(17-20-12-13-32-27(20)38)33-29(40)25(16-19-6-8-21(31)9-7-19)36-14-4-5-23(30(36)41)34-28(39)24-15-18(2)43-35-24/h4-11,14-15,20,22,25H,3,12-13,16-17H2,1-2H3,(H,32,38)(H,33,40)(H,34,39)

> <PUBCHEM_IUPAC_INCHIKEY>
DPSADWBPDLMTOY-UHFFFAOYSA-N

> <PUBCHEM_XLOGP3_AA>
2.4

> <PUBCHEM_EXACT_MASS>
593.228577

> <PUBCHEM_MOLECULAR_FORMULA>
C30H32FN5O7

> <PUBCHEM_MOLECULAR_WEIGHT>
593.6

> <PUBCHEM_OPENEYE_CAN_SMILES>
CCOC(=O)C=CC(CC1CCNC1=O)NC(=O)C(CC2=CC=C(C=C2)F)N3C=CC=C(C3=O)NC(=O)C4=NOC(=C4)C

> <PUBCHEM_OPENEYE_ISO_SMILES>
CCOC(=O)C=CC(CC1CCNC1=O)NC(=O)C(CC2=CC=C(C=C2)F)N3C=CC=C(C3=O)NC(=O)C4=NOC(=C4)C

> <PUBCHEM_CACTVS_TPSA>
160

> <PUBCHEM_MONOISOTOPIC_WEIGHT>
593.228577

> <PUBCHEM_TOTAL_CHARGE>
0

> <PUBCHEM_HEAVY_ATOM_COUNT>
43

> <PUBCHEM_ATOM_DEF_STEREO_COUNT>
0

> <PUBCHEM_ATOM_UDEF_STEREO_COUNT>
3

> <PUBCHEM_BOND_DEF_STEREO_COUNT>
0

> <PUBCHEM_BOND_UDEF_STEREO_COUNT>
1

> <PUBCHEM_ISOTOPIC_ATOM_COUNT>
0

> <PUBCHEM_COMPONENT_COUNT>
1

> <PUBCHEM_CACTVS_TAUTO_COUNT>
-1

> <PUBCHEM_COORDINATE_TYPE>
1
5
255

> <PUBCHEM_BONDANNOTATIONS>
11  26  8
11  27  8
13  39  8
14  15  3
17  15  3
20  23  3
21  24  1
25  29  8
25  30  8
26  28  8
27  31  8
28  33  8
29  34  8
30  35  8
31  33  8
34  36  8
35  36  8
39  41  8
41  42  8
8  13  8
8  42  8

$$$$
90325680
  -OEChem-02212016592D

 49 51  0     1  0  0  0  0  0999 V2000
   10.8274    5.0944    0.0000 O   0  0  0  0  0  0  0  0  0  0  0  0
    6.3776    0.7910    0.0000 O   0  0  0  0  0  0  0  0  0  0  0  0
    3.7320   -1.8023    0.0000 O   0  0  0  0  0  0  0  0  0  0  0  0
    6.3657    4.1227    0.0000 O   0  0  0  0  0  0  0  0  0  0  0  0
    7.9480    3.4182    0.0000 N   0  0  0  0  0  0  0  0  0  0  0  0
    7.0468    1.5341    0.0000 N   0  0  0  0  0  0  0  0  0  0  0  0
    9.3493    4.4363    0.0000 C   0  0  3  0  0  0  0  0  0  0  0  0
   10.0184    3.6931    0.0000 C   0  0  0  0  0  0  0  0  0  0  0  0
    9.8493    5.3023    0.0000 C   0  0  0  0  0  0  0  0  0  0  0  0
    8.3548    4.3318    0.0000 C   0  0  0  0  0  0  0  0  0  0  0  0
   10.9320    4.0999    0.0000 C   0  0  0  0  0  0  0  0  0  0  0  0
    6.9535    3.3137    0.0000 C   0  0  0  0  0  0  0  0  0  0  0  0
    6.5468    2.4001    0.0000 C   0  0  0  0  0  0  0  0  0  0  0  0
    4.5981    0.6977    0.0000 C   0  0  0  0  0  0  0  0  0  0  0  0
    4.5981   -0.3023    0.0000 C   0  0  0  0  0  0  0  0  0  0  0  0
    5.4641    1.1977    0.0000 C   0  0  0  0  0  0  0  0  0  0  0  0
    5.5686    2.1922    0.0000 C   0  0  0  0  0  0  0  0  0  0  0  0
    3.7320   -0.8023    0.0000 C   0  0  0  0  0  0  0  0  0  0  0  0
    2.8660   -2.3023    0.0000 C   0  0  0  0  0  0  0  0  0  0  0  0
    2.8660   -3.3023    0.0000 C   0  0  0  0  0  0  0  0  0  0  0  0
    2.0000   -3.8023    0.0000 C   0  0  0  0  0  0  0  0  0  0  0  0
    3.7320   -3.8023    0.0000 C   0  0  0  0  0  0  0  0  0  0  0  0
    2.0000   -4.8023    0.0000 C   0  0  0  0  0  0  0  0  0  0  0  0
    3.7320   -4.8023    0.0000 C   0  0  0  0  0  0  0  0  0  0  0  0
    2.8660   -5.3023    0.0000 C   0  0  0  0  0  0  0  0  0  0  0  0
    9.0116    4.9562    0.0000 H   0  0  0  0  0  0  0  0  0  0  0  0
    9.5168    3.3287    0.0000 H   0  0  0  0  0  0  0  0  0  0  0  0
   10.3284    3.1562    0.0000 H   0  0  0  0  0  0  0  0  0  0  0  0
   10.0409    5.8920    0.0000 H   0  0  0  0  0  0  0  0  0  0  0  0
    9.2829    5.5545    0.0000 H   0  0  0  0  0  0  0  0  0  0  0  0
    8.3980    4.9502    0.0000 H   0  0  0  0  0  0  0  0  0  0  0  0
    7.7532    4.4817    0.0000 H   0  0  0  0  0  0  0  0  0  0  0  0
   11.1236    3.5102    0.0000 H   0  0  0  0  0  0  0  0  0  0  0  0
   11.5384    4.2288    0.0000 H   0  0  0  0  0  0  0  0  0  0  0  0
    8.3125    2.9166    0.0000 H   0  0  0  0  0  0  0  0  0  0  0  0
    4.3860    1.2803    0.0000 H   0  0  0  0  0  0  0  0  0  0  0  0
    3.9875    0.5900    0.0000 H   0  0  0  0  0  0  0  0  0  0  0  0
    4.8101   -0.8849    0.0000 H   0  0  0  0  0  0  0  0  0  0  0  0
    5.2087   -0.1946    0.0000 H   0  0  0  0  0  0  0  0  0  0  0  0
    5.1079    2.6071    0.0000 H   0  0  0  0  0  0  0  0  0  0  0  0
    3.5200   -0.2197    0.0000 H   0  0  0  0  0  0  0  0  0  0  0  0
    3.1215   -0.9100    0.0000 H   0  0  0  0  0  0  0  0  0  0  0  0
    2.6540   -1.7197    0.0000 H   0  0  0  0  0  0  0  0  0  0  0  0
    2.2554   -2.4100    0.0000 H   0  0  0  0  0  0  0  0  0  0  0  0
    1.4631   -3.4923    0.0000 H   0  0  0  0  0  0  0  0  0  0  0  0
    4.2690   -3.4923    0.0000 H   0  0  0  0  0  0  0  0  0  0  0  0
    1.4631   -5.1123    0.0000 H   0  0  0  0  0  0  0  0  0  0  0  0
    4.2690   -5.1123    0.0000 H   0  0  0  0  0  0  0  0  0  0  0  0
    2.8660   -5.9223    0.0000 H   0  0  0  0  0  0  0  0  0  0  0  0
  1  9  1  0  0  0  0
  1 11  1  0  0  0  0
  2  6  1  0  0  0  0
  2 16  1  0  0  0  0
  3 18  1  0  0  0  0
  3 19  1  0  0  0  0
  4 12  2  0  0  0  0
  5 10  1  0  0  0  0
  5 12  1  0  0  0  0
  5 35  1  0  0  0  0
  6 13  2  0  0  0  0
  7  8  1  0  0  0  0
  7  9  1  0  0  0  0
  7 10  1  0  0  0  0
  7 26  1  0  0  0  0
  8 11  1  0  0  0  0
  8 27  1  0  0  0  0
  8 28  1  0  0  0  0
  9 29  1  0  0  0  0
  9 30  1  0  0  0  0
 10 31  1  0  0  0  0
 10 32  1  0  0  0  0
 11 33  1  0  0  0  0
 11 34  1  0  0  0  0
 12 13  1  0  0  0  0
 13 17  1  0  0  0  0
 14 15  1  0  0  0  0
 14 16  1  0  0  0  0
 14 36  1  0  0  0  0
 14 37  1  0  0  0  0
 15 18  1  0  0  0  0
 15 38  1  0  0  0  0
 15 39  1  0  0  0  0
 16 17  2  0  0  0  0
 17 40  1  0  0  0  0
 18 41  1  0  0  0  0
 18 42  1  0  0  0  0
 19 20  1  0  0  0  0
 19 43  1  0  0  0  0
 19 44  1  0  0  0  0
 20 21  2  0  0  0  0
 20 22  1  0  0  0  0
 21 23  1  0  0  0  0
 21 45  1  0  0  0  0
 22 24  2  0  0  0  0
 22 46  1  0  0  0  0
 23 25  2  0  0  0  0
 23 47  1  0  0  0  0
 24 25  1  0  0  0  0
 24 48  1  0  0  0  0
 25 49  1  0  0  0  0
M  END
> <PUBCHEM_COMPOUND_CID>
90325680

> <PUBCHEM_COMPOUND_CANONICALIZED>
1

> <PUBCHEM_CACTVS_COMPLEXITY>
401

> <PUBCHEM_CACTVS_HBOND_ACCEPTOR>
5

> <PUBCHEM_CACTVS_HBOND_DONOR>
1

> <PUBCHEM_CACTVS_ROTATABLE_BOND>
9

> <PUBCHEM_CACTVS_SUBSKEYS>
AAADceB7OAAAAAAAAAAAAAAAAAAAAWJAAAAwAAAAAAAAAAABwAAAHgAUAAAADQzhngYwhJLQBACpA6VyUgCCAAAmIgAomKG+bNoIZjqAtZuWMYhm1hmI6cf/yCCOAAAAAAAAAAAAAAAAAAAAAAAAAAAAAA==

> <PUBCHEM_IUPAC_OPENEYE_NAME>
5-(3-benzyloxypropyl)-N-(tetrahydrofuran-3-ylmethyl)isoxazole-3-carboxamide

> <PUBCHEM_IUPAC_CAS_NAME>
N-(3-oxolanylmethyl)-5-(3-phenylmethoxypropyl)-3-isoxazolecarboxamide

> <PUBCHEM_IUPAC_NAME_MARKUP>
<I>N</I>-(oxolan-3-ylmethyl)-5-(3-phenylmethoxypropyl)-1,2-oxazole-3-carboxamide

> <PUBCHEM_IUPAC_NAME>
N-(oxolan-3-ylmethyl)-5-(3-phenylmethoxypropyl)-1,2-oxazole-3-carboxamide

> <PUBCHEM_IUPAC_SYSTEMATIC_NAME>
N-(oxolan-3-ylmethyl)-5-(3-phenylmethoxypropyl)-1,2-oxazole-3-carboxamide

> <PUBCHEM_IUPAC_TRADITIONAL_NAME>
5-(3-benzoxypropyl)-N-(tetrahydrofuran-3-ylmethyl)isoxazole-3-carboxamide

> <PUBCHEM_IUPAC_INCHI>
InChI=1S/C19H24N2O4/c22-19(20-12-16-8-10-24-14-16)18-11-17(25-21-18)7-4-9-23-13-15-5-2-1-3-6-15/h1-3,5-6,11,16H,4,7-10,12-14H2,(H,20,22)

> <PUBCHEM_IUPAC_INCHIKEY>
ZTEMPDFKRNVCGH-UHFFFAOYSA-N

> <PUBCHEM_XLOGP3_AA>
2.2

> <PUBCHEM_EXACT_MASS>
344.173607

> <PUBCHEM_MOLECULAR_FORMULA>
C19H24N2O4

> <PUBCHEM_MOLECULAR_WEIGHT>
344.4

> <PUBCHEM_OPENEYE_CAN_SMILES>
C1COCC1CNC(=O)C2=NOC(=C2)CCCOCC3=CC=CC=C3

> <PUBCHEM_OPENEYE_ISO_SMILES>
C1COCC1CNC(=O)C2=NOC(=C2)CCCOCC3=CC=CC=C3

> <PUBCHEM_CACTVS_TPSA>
73.6

> <PUBCHEM_MONOISOTOPIC_WEIGHT>
344.173607

> <PUBCHEM_TOTAL_CHARGE>
0

> <PUBCHEM_HEAVY_ATOM_COUNT>
25

> <PUBCHEM_ATOM_DEF_STEREO_COUNT>
0

> <PUBCHEM_ATOM_UDEF_STEREO_COUNT>
1

> <PUBCHEM_BOND_DEF_STEREO_COUNT>
0

> <PUBCHEM_BOND_UDEF_STEREO_COUNT>
0

> <PUBCHEM_ISOTOPIC_ATOM_COUNT>
0

> <PUBCHEM_COMPONENT_COUNT>
1

> <PUBCHEM_CACTVS_TAUTO_COUNT>
-1

> <PUBCHEM_COORDINATE_TYPE>
1
5
255

> <PUBCHEM_BONDANNOTATIONS>
13  17  8
16  17  8
2  16  8
2  6  8
20  21  8
20  22  8
21  23  8
22  24  8
23  25  8
24  25  8
6  13  8
7  10  3

$$$$
90325681
  -OEChem-02212016592D

 55 57  0     1  0  0  0  0  0999 V2000
   11.7980    4.8499    0.0000 O   0  0  0  0  0  0  0  0  0  0  0  0
    7.2437    1.5410    0.0000 O   0  0  0  0  0  0  0  0  0  0  0  0
    3.7320   -2.5523    0.0000 O   0  0  0  0  0  0  0  0  0  0  0  0
    7.2318    4.8727    0.0000 O   0  0  0  0  0  0  0  0  0  0  0  0
    8.8141    4.1682    0.0000 N   0  0  0  0  0  0  0  0  0  0  0  0
    7.9128    2.2841    0.0000 N   0  0  0  0  0  0  0  0  0  0  0  0
   10.2153    5.1863    0.0000 C   0  0  3  0  0  0  0  0  0  0  0  0
   10.7153    6.0523    0.0000 C   0  0  0  0  0  0  0  0  0  0  0  0
   10.8845    4.4431    0.0000 C   0  0  0  0  0  0  0  0  0  0  0  0
    9.2208    5.0818    0.0000 C   0  0  0  0  0  0  0  0  0  0  0  0
   11.6935    5.8444    0.0000 C   0  0  0  0  0  0  0  0  0  0  0  0
    5.4641    0.4477    0.0000 C   0  0  0  0  0  0  0  0  0  0  0  0
    4.5981   -0.0523    0.0000 C   0  0  0  0  0  0  0  0  0  0  0  0
    5.4641    1.4477    0.0000 C   0  0  0  0  0  0  0  0  0  0  0  0
    7.8195    4.0637    0.0000 C   0  0  0  0  0  0  0  0  0  0  0  0
    4.5981   -1.0523    0.0000 C   0  0  0  0  0  0  0  0  0  0  0  0
    6.3301    1.9477    0.0000 C   0  0  0  0  0  0  0  0  0  0  0  0
    7.4128    3.1501    0.0000 C   0  0  0  0  0  0  0  0  0  0  0  0
    3.7320   -1.5523    0.0000 C   0  0  0  0  0  0  0  0  0  0  0  0
    6.4347    2.9422    0.0000 C   0  0  0  0  0  0  0  0  0  0  0  0
    2.8660   -3.0523    0.0000 C   0  0  0  0  0  0  0  0  0  0  0  0
    2.8660   -4.0523    0.0000 C   0  0  0  0  0  0  0  0  0  0  0  0
    2.0000   -4.5523    0.0000 C   0  0  0  0  0  0  0  0  0  0  0  0
    3.7320   -4.5523    0.0000 C   0  0  0  0  0  0  0  0  0  0  0  0
    2.0000   -5.5523    0.0000 C   0  0  0  0  0  0  0  0  0  0  0  0
    3.7320   -5.5523    0.0000 C   0  0  0  0  0  0  0  0  0  0  0  0
    2.8660   -6.0523    0.0000 C   0  0  0  0  0  0  0  0  0  0  0  0
    9.9931    4.6075    0.0000 H   0  0  0  0  0  0  0  0  0  0  0  0
   10.9069    6.6420    0.0000 H   0  0  0  0  0  0  0  0  0  0  0  0
   10.1489    6.3045    0.0000 H   0  0  0  0  0  0  0  0  0  0  0  0
   10.3829    4.0787    0.0000 H   0  0  0  0  0  0  0  0  0  0  0  0
   11.1945    3.9062    0.0000 H   0  0  0  0  0  0  0  0  0  0  0  0
    9.2640    5.7002    0.0000 H   0  0  0  0  0  0  0  0  0  0  0  0
    8.6192    5.2317    0.0000 H   0  0  0  0  0  0  0  0  0  0  0  0
   12.3135    5.8444    0.0000 H   0  0  0  0  0  0  0  0  0  0  0  0
   11.7583    6.4610    0.0000 H   0  0  0  0  0  0  0  0  0  0  0  0
    9.1785    3.6666    0.0000 H   0  0  0  0  0  0  0  0  0  0  0  0
    5.6762   -0.1349    0.0000 H   0  0  0  0  0  0  0  0  0  0  0  0
    6.0747    0.5554    0.0000 H   0  0  0  0  0  0  0  0  0  0  0  0
    4.3860    0.5303    0.0000 H   0  0  0  0  0  0  0  0  0  0  0  0
    3.9875   -0.1600    0.0000 H   0  0  0  0  0  0  0  0  0  0  0  0
    5.2520    2.0303    0.0000 H   0  0  0  0  0  0  0  0  0  0  0  0
    4.8535    1.3400    0.0000 H   0  0  0  0  0  0  0  0  0  0  0  0
    4.8101   -1.6349    0.0000 H   0  0  0  0  0  0  0  0  0  0  0  0
    5.2087   -0.9446    0.0000 H   0  0  0  0  0  0  0  0  0  0  0  0
    3.5200   -0.9697    0.0000 H   0  0  0  0  0  0  0  0  0  0  0  0
    3.1215   -1.6600    0.0000 H   0  0  0  0  0  0  0  0  0  0  0  0
    5.9739    3.3571    0.0000 H   0  0  0  0  0  0  0  0  0  0  0  0
    2.6540   -2.4697    0.0000 H   0  0  0  0  0  0  0  0  0  0  0  0
    2.2554   -3.1600    0.0000 H   0  0  0  0  0  0  0  0  0  0  0  0
    1.4631   -4.2423    0.0000 H   0  0  0  0  0  0  0  0  0  0  0  0
    4.2690   -4.2423    0.0000 H   0  0  0  0  0  0  0  0  0  0  0  0
    1.4631   -5.8623    0.0000 H   0  0  0  0  0  0  0  0  0  0  0  0
    4.2690   -5.8623    0.0000 H   0  0  0  0  0  0  0  0  0  0  0  0
    2.8660   -6.6723    0.0000 H   0  0  0  0  0  0  0  0  0  0  0  0
  1  9  1  0  0  0  0
  1 11  1  0  0  0  0
  2  6  1  0  0  0  0
  2 17  1  0  0  0  0
  3 19  1  0  0  0  0
  3 21  1  0  0  0  0
  4 15  2  0  0  0  0
  5 10  1  0  0  0  0
  5 15  1  0  0  0  0
  5 37  1  0  0  0  0
  6 18  2  0  0  0  0
  7  8  1  0  0  0  0
  7  9  1  0  0  0  0
  7 10  1  0  0  0  0
  7 28  1  0  0  0  0
  8 11  1  0  0  0  0
  8 29  1  0  0  0  0
  8 30  1  0  0  0  0
  9 31  1  0  0  0  0
  9 32  1  0  0  0  0
 10 33  1  0  0  0  0
 10 34  1  0  0  0  0
 11 35  1  0  0  0  0
 11 36  1  0  0  0  0
 12 13  1  0  0  0  0
 12 14  1  0  0  0  0
 12 38  1  0  0  0  0
 12 39  1  0  0  0  0
 13 16  1  0  0  0  0
 13 40  1  0  0  0  0
 13 41  1  0  0  0  0
 14 17  1  0  0  0  0
 14 42  1  0  0  0  0
 14 43  1  0  0  0  0
 15 18  1  0  0  0  0
 16 19  1  0  0  0  0
 16 44  1  0  0  0  0
 16 45  1  0  0  0  0
 17 20  2  0  0  0  0
 18 20  1  0  0  0  0
 19 46  1  0  0  0  0
 19 47  1  0  0  0  0
 20 48  1  0  0  0  0
 21 22  1  0  0  0  0
 21 49  1  0  0  0  0
 21 50  1  0  0  0  0
 22 23  2  0  0  0  0
 22 24  1  0  0  0  0
 23 25  1  0  0  0  0
 23 51  1  0  0  0  0
 24 26  2  0  0  0  0
 24 52  1  0  0  0  0
 25 27  2  0  0  0  0
 25 53  1  0  0  0  0
 26 27  1  0  0  0  0
 26 54  1  0  0  0  0
 27 55  1  0  0  0  0
M  END
> <PUBCHEM_COMPOUND_CID>
90325681

> <PUBCHEM_COMPOUND_CANONICALIZED>
1

> <PUBCHEM_CACTVS_COMPLEXITY>
428

> <PUBCHEM_CACTVS_HBOND_ACCEPTOR>
5

> <PUBCHEM_CACTVS_HBOND_DONOR>
1

> <PUBCHEM_CACTVS_ROTATABLE_BOND>
11

> <PUBCHEM_CACTVS_SUBSKEYS>
AAADceB7OAAAAAAAAAAAAAAAAAAAAWJAAAAwAAAAAAAAAAABwAAAHgAUAAAADQzhngYwhJLQBACpA6VyUgCCAAAmIgAomKG+bNoIZjqAtZuWMYhm1hmI6ce/yKCOAAAAAAAAAAAAAAAAAAAAAAAAAAAAAA==

> <PUBCHEM_IUPAC_OPENEYE_NAME>
5-(5-benzyloxypentyl)-N-(tetrahydrofuran-3-ylmethyl)isoxazole-3-carboxamide

> <PUBCHEM_IUPAC_CAS_NAME>
N-(3-oxolanylmethyl)-5-(5-phenylmethoxypentyl)-3-isoxazolecarboxamide

> <PUBCHEM_IUPAC_NAME_MARKUP>
<I>N</I>-(oxolan-3-ylmethyl)-5-(5-phenylmethoxypentyl)-1,2-oxazole-3-carboxamide

> <PUBCHEM_IUPAC_NAME>
N-(oxolan-3-ylmethyl)-5-(5-phenylmethoxypentyl)-1,2-oxazole-3-carboxamide

> <PUBCHEM_IUPAC_SYSTEMATIC_NAME>
N-(oxolan-3-ylmethyl)-5-(5-phenylmethoxypentyl)-1,2-oxazole-3-carboxamide

> <PUBCHEM_IUPAC_TRADITIONAL_NAME>
5-(5-benzoxypentyl)-N-(tetrahydrofuran-3-ylmethyl)isoxazole-3-carboxamide

> <PUBCHEM_IUPAC_INCHI>
InChI=1S/C21H28N2O4/c24-21(22-14-18-10-12-26-16-18)20-13-19(27-23-20)9-5-2-6-11-25-15-17-7-3-1-4-8-17/h1,3-4,7-8,13,18H,2,5-6,9-12,14-16H2,(H,22,24)

> <PUBCHEM_IUPAC_INCHIKEY>
PHJHETBIZLHQOJ-UHFFFAOYSA-N

> <PUBCHEM_XLOGP3_AA>
2.9

> <PUBCHEM_EXACT_MASS>
372.204907

> <PUBCHEM_MOLECULAR_FORMULA>
C21H28N2O4

> <PUBCHEM_MOLECULAR_WEIGHT>
372.5

> <PUBCHEM_OPENEYE_CAN_SMILES>
C1COCC1CNC(=O)C2=NOC(=C2)CCCCCOCC3=CC=CC=C3

> <PUBCHEM_OPENEYE_ISO_SMILES>
C1COCC1CNC(=O)C2=NOC(=C2)CCCCCOCC3=CC=CC=C3

> <PUBCHEM_CACTVS_TPSA>
73.6

> <PUBCHEM_MONOISOTOPIC_WEIGHT>
372.204907

> <PUBCHEM_TOTAL_CHARGE>
0

> <PUBCHEM_HEAVY_ATOM_COUNT>
27

> <PUBCHEM_ATOM_DEF_STEREO_COUNT>
0

> <PUBCHEM_ATOM_UDEF_STEREO_COUNT>
1

> <PUBCHEM_BOND_DEF_STEREO_COUNT>
0

> <PUBCHEM_BOND_UDEF_STEREO_COUNT>
0

> <PUBCHEM_ISOTOPIC_ATOM_COUNT>
0

> <PUBCHEM_COMPONENT_COUNT>
1

> <PUBCHEM_CACTVS_TAUTO_COUNT>
-1

> <PUBCHEM_COORDINATE_TYPE>
1
5
255

> <PUBCHEM_BONDANNOTATIONS>
17  20  8
18  20  8
2  17  8
2  6  8
22  23  8
22  24  8
23  25  8
24  26  8
25  27  8
26  27  8
6  18  8
7  10  3

$$$$
90325839
  -OEChem-02212016592D

 58 60  0     1  0  0  0  0  0999 V2000
    6.1095    7.3898    0.0000 O   0  0  0  0  0  0  0  0  0  0  0  0
    5.5211    1.7912    0.0000 O   0  0  0  0  0  0  0  0  0  0  0  0
    3.7320   -4.2966    0.0000 O   0  0  0  0  0  0  0  0  0  0  0  0
    8.4124    3.4468    0.0000 O   0  0  0  0  0  0  0  0  0  0  0  0
    7.0112    4.4648    0.0000 N   0  0  0  0  0  0  0  0  0  0  0  0
    5.8301    2.7423    0.0000 N   0  0  0  0  0  0  0  0  0  0  0  0
    7.1922    6.1874    0.0000 C   0  0  3  0  0  0  0  0  0  0  0  0
    7.6922    7.0534    0.0000 C   0  0  0  0  0  0  0  0  0  0  0  0
    6.2141    6.3953    0.0000 C   0  0  0  0  0  0  0  0  0  0  0  0
    7.5990    5.2739    0.0000 C   0  0  0  0  0  0  0  0  0  0  0  0
    7.0231    7.7966    0.0000 C   0  0  0  0  0  0  0  0  0  0  0  0
    5.4641   -1.2966    0.0000 C   0  0  0  0  0  0  0  0  0  0  0  0
    5.4641   -0.2966    0.0000 C   0  0  0  0  0  0  0  0  0  0  0  0
    4.5981   -1.7966    0.0000 C   0  0  0  0  0  0  0  0  0  0  0  0
    6.3301    0.2034    0.0000 C   0  0  0  0  0  0  0  0  0  0  0  0
    4.5981   -2.7966    0.0000 C   0  0  0  0  0  0  0  0  0  0  0  0
    7.4179    3.5513    0.0000 C   0  0  0  0  0  0  0  0  0  0  0  0
    6.3301    1.2034    0.0000 C   0  0  0  0  0  0  0  0  0  0  0  0
    6.8301    2.7423    0.0000 C   0  0  0  0  0  0  0  0  0  0  0  0
    3.7320   -3.2966    0.0000 C   0  0  0  0  0  0  0  0  0  0  0  0
    7.1391    1.7912    0.0000 C   0  0  0  0  0  0  0  0  0  0  0  0
    2.8660   -4.7966    0.0000 C   0  0  0  0  0  0  0  0  0  0  0  0
    2.8660   -5.7966    0.0000 C   0  0  0  0  0  0  0  0  0  0  0  0
    2.0000   -6.2966    0.0000 C   0  0  0  0  0  0  0  0  0  0  0  0
    3.7320   -6.2966    0.0000 C   0  0  0  0  0  0  0  0  0  0  0  0
    2.0000   -7.2966    0.0000 C   0  0  0  0  0  0  0  0  0  0  0  0
    3.7320   -7.2966    0.0000 C   0  0  0  0  0  0  0  0  0  0  0  0
    2.8660   -7.7966    0.0000 C   0  0  0  0  0  0  0  0  0  0  0  0
    6.8020    5.7056    0.0000 H   0  0  0  0  0  0  0  0  0  0  0  0
    8.1938    6.6890    0.0000 H   0  0  0  0  0  0  0  0  0  0  0  0
    8.1071    7.5142    0.0000 H   0  0  0  0  0  0  0  0  0  0  0  0
    5.5941    6.3953    0.0000 H   0  0  0  0  0  0  0  0  0  0  0  0
    6.1493    5.7787    0.0000 H   0  0  0  0  0  0  0  0  0  0  0  0
    8.0296    4.8279    0.0000 H   0  0  0  0  0  0  0  0  0  0  0  0
    8.1130    5.6206    0.0000 H   0  0  0  0  0  0  0  0  0  0  0  0
    7.5247    8.1610    0.0000 H   0  0  0  0  0  0  0  0  0  0  0  0
    6.7131    8.3335    0.0000 H   0  0  0  0  0  0  0  0  0  0  0  0
    6.3946    4.5296    0.0000 H   0  0  0  0  0  0  0  0  0  0  0  0
    5.6762   -1.8792    0.0000 H   0  0  0  0  0  0  0  0  0  0  0  0
    6.0747   -1.1889    0.0000 H   0  0  0  0  0  0  0  0  0  0  0  0
    5.2520    0.2860    0.0000 H   0  0  0  0  0  0  0  0  0  0  0  0
    4.8535   -0.4042    0.0000 H   0  0  0  0  0  0  0  0  0  0  0  0
    4.3860   -1.2140    0.0000 H   0  0  0  0  0  0  0  0  0  0  0  0
    3.9875   -1.9042    0.0000 H   0  0  0  0  0  0  0  0  0  0  0  0
    6.5422   -0.3792    0.0000 H   0  0  0  0  0  0  0  0  0  0  0  0
    6.9407    0.3111    0.0000 H   0  0  0  0  0  0  0  0  0  0  0  0
    4.8101   -3.3792    0.0000 H   0  0  0  0  0  0  0  0  0  0  0  0
    5.2087   -2.6889    0.0000 H   0  0  0  0  0  0  0  0  0  0  0  0
    3.5200   -2.7140    0.0000 H   0  0  0  0  0  0  0  0  0  0  0  0
    3.1215   -3.4042    0.0000 H   0  0  0  0  0  0  0  0  0  0  0  0
    7.7288    1.5996    0.0000 H   0  0  0  0  0  0  0  0  0  0  0  0
    2.6540   -4.2140    0.0000 H   0  0  0  0  0  0  0  0  0  0  0  0
    2.2554   -4.9042    0.0000 H   0  0  0  0  0  0  0  0  0  0  0  0
    1.4631   -5.9866    0.0000 H   0  0  0  0  0  0  0  0  0  0  0  0
    4.2690   -5.9866    0.0000 H   0  0  0  0  0  0  0  0  0  0  0  0
    1.4631   -7.6066    0.0000 H   0  0  0  0  0  0  0  0  0  0  0  0
    4.2690   -7.6066    0.0000 H   0  0  0  0  0  0  0  0  0  0  0  0
    2.8660   -8.4166    0.0000 H   0  0  0  0  0  0  0  0  0  0  0  0
  1  9  1  0  0  0  0
  1 11  1  0  0  0  0
  2  6  1  0  0  0  0
  2 18  1  0  0  0  0
  3 20  1  0  0  0  0
  3 22  1  0  0  0  0
  4 17  2  0  0  0  0
  5 10  1  0  0  0  0
  5 17  1  0  0  0  0
  5 38  1  0  0  0  0
  6 19  2  0  0  0  0
  7  8  1  0  0  0  0
  7  9  1  0  0  0  0
  7 10  1  0  0  0  0
  7 29  1  0  0  0  0
  8 11  1  0  0  0  0
  8 30  1  0  0  0  0
  8 31  1  0  0  0  0
  9 32  1  0  0  0  0
  9 33  1  0  0  0  0
 10 34  1  0  0  0  0
 10 35  1  0  0  0  0
 11 36  1  0  0  0  0
 11 37  1  0  0  0  0
 12 13  1  0  0  0  0
 12 14  1  0  0  0  0
 12 39  1  0  0  0  0
 12 40  1  0  0  0  0
 13 15  1  0  0  0  0
 13 41  1  0  0  0  0
 13 42  1  0  0  0  0
 14 16  1  0  0  0  0
 14 43  1  0  0  0  0
 14 44  1  0  0  0  0
 15 18  1  0  0  0  0
 15 45  1  0  0  0  0
 15 46  1  0  0  0  0
 16 20  1  0  0  0  0
 16 47  1  0  0  0  0
 16 48  1  0  0  0  0
 17 19  1  0  0  0  0
 18 21  2  0  0  0  0
 19 21  1  0  0  0  0
 20 49  1  0  0  0  0
 20 50  1  0  0  0  0
 21 51  1  0  0  0  0
 22 23  1  0  0  0  0
 22 52  1  0  0  0  0
 22 53  1  0  0  0  0
 23 24  2  0  0  0  0
 23 25  1  0  0  0  0
 24 26  1  0  0  0  0
 24 54  1  0  0  0  0
 25 27  2  0  0  0  0
 25 55  1  0  0  0  0
 26 28  2  0  0  0  0
 26 56  1  0  0  0  0
 27 28  1  0  0  0  0
 27 57  1  0  0  0  0
 28 58  1  0  0  0  0
M  END
> <PUBCHEM_COMPOUND_CID>
90325839

> <PUBCHEM_COMPOUND_CANONICALIZED>
1

> <PUBCHEM_CACTVS_COMPLEXITY>
442

> <PUBCHEM_CACTVS_HBOND_ACCEPTOR>
5

> <PUBCHEM_CACTVS_HBOND_DONOR>
1

> <PUBCHEM_CACTVS_ROTATABLE_BOND>
12

> <PUBCHEM_CACTVS_SUBSKEYS>
AAADceB7OAAAAAAAAAAAAAAAAAAAAWJAAAAwAAAAAAAAAAABwAAAHgAUAAAADQzhngYwhJLQBACpA6VyUgCCAAAmIgAomKG+bNoIZjqAtZuWMYhm1hmI6ce/yKCOAAAAAAAAAAAAAAAAAAAAAAAAAAAAAA==

> <PUBCHEM_IUPAC_OPENEYE_NAME>
5-(6-benzyloxyhexyl)-N-(tetrahydrofuran-3-ylmethyl)isoxazole-3-carboxamide

> <PUBCHEM_IUPAC_CAS_NAME>
N-(3-oxolanylmethyl)-5-(6-phenylmethoxyhexyl)-3-isoxazolecarboxamide

> <PUBCHEM_IUPAC_NAME_MARKUP>
<I>N</I>-(oxolan-3-ylmethyl)-5-(6-phenylmethoxyhexyl)-1,2-oxazole-3-carboxamide

> <PUBCHEM_IUPAC_NAME>
N-(oxolan-3-ylmethyl)-5-(6-phenylmethoxyhexyl)-1,2-oxazole-3-carboxamide

> <PUBCHEM_IUPAC_SYSTEMATIC_NAME>
N-(oxolan-3-ylmethyl)-5-(6-phenylmethoxyhexyl)-1,2-oxazole-3-carboxamide

> <PUBCHEM_IUPAC_TRADITIONAL_NAME>
5-(6-benzoxyhexyl)-N-(tetrahydrofuran-3-ylmethyl)isoxazole-3-carboxamide

> <PUBCHEM_IUPAC_INCHI>
InChI=1S/C22H30N2O4/c25-22(23-15-19-11-13-27-17-19)21-14-20(28-24-21)10-6-1-2-7-12-26-16-18-8-4-3-5-9-18/h3-5,8-9,14,19H,1-2,6-7,10-13,15-17H2,(H,23,25)

> <PUBCHEM_IUPAC_INCHIKEY>
TXYFYHUXVNRPBM-UHFFFAOYSA-N

> <PUBCHEM_XLOGP3_AA>
3.5

> <PUBCHEM_EXACT_MASS>
386.220557

> <PUBCHEM_MOLECULAR_FORMULA>
C22H30N2O4

> <PUBCHEM_MOLECULAR_WEIGHT>
386.5

> <PUBCHEM_OPENEYE_CAN_SMILES>
C1COCC1CNC(=O)C2=NOC(=C2)CCCCCCOCC3=CC=CC=C3

> <PUBCHEM_OPENEYE_ISO_SMILES>
C1COCC1CNC(=O)C2=NOC(=C2)CCCCCCOCC3=CC=CC=C3

> <PUBCHEM_CACTVS_TPSA>
73.6

> <PUBCHEM_MONOISOTOPIC_WEIGHT>
386.220557

> <PUBCHEM_TOTAL_CHARGE>
0

> <PUBCHEM_HEAVY_ATOM_COUNT>
28

> <PUBCHEM_ATOM_DEF_STEREO_COUNT>
0

> <PUBCHEM_ATOM_UDEF_STEREO_COUNT>
1

> <PUBCHEM_BOND_DEF_STEREO_COUNT>
0

> <PUBCHEM_BOND_UDEF_STEREO_COUNT>
0

> <PUBCHEM_ISOTOPIC_ATOM_COUNT>
0

> <PUBCHEM_COMPONENT_COUNT>
1

> <PUBCHEM_CACTVS_TAUTO_COUNT>
-1

> <PUBCHEM_COORDINATE_TYPE>
1
5
255

> <PUBCHEM_BONDANNOTATIONS>
18  21  8
19  21  8
2  18  8
2  6  8
23  24  8
23  25  8
24  26  8
25  27  8
26  28  8
27  28  8
6  19  8
7  10  3

$$$$
90325947
  -OEChem-02212016592D

 52 54  0     1  0  0  0  0  0999 V2000
    5.2435    6.6398    0.0000 O   0  0  0  0  0  0  0  0  0  0  0  0
    4.6551    1.0412    0.0000 O   0  0  0  0  0  0  0  0  0  0  0  0
    3.7320   -3.5466    0.0000 O   0  0  0  0  0  0  0  0  0  0  0  0
    7.5464    2.6968    0.0000 O   0  0  0  0  0  0  0  0  0  0  0  0
    6.1452    3.7148    0.0000 N   0  0  0  0  0  0  0  0  0  0  0  0
    4.9641    1.9923    0.0000 N   0  0  0  0  0  0  0  0  0  0  0  0
    6.3262    5.4374    0.0000 C   0  0  3  0  0  0  0  0  0  0  0  0
    6.8262    6.3034    0.0000 C   0  0  0  0  0  0  0  0  0  0  0  0
    5.3480    5.6453    0.0000 C   0  0  0  0  0  0  0  0  0  0  0  0
    6.7329    4.5239    0.0000 C   0  0  0  0  0  0  0  0  0  0  0  0
    6.1571    7.0466    0.0000 C   0  0  0  0  0  0  0  0  0  0  0  0
    6.5519    2.8013    0.0000 C   0  0  0  0  0  0  0  0  0  0  0  0
    4.5981   -1.0466    0.0000 C   0  0  0  0  0  0  0  0  0  0  0  0
    5.4641   -0.5466    0.0000 C   0  0  0  0  0  0  0  0  0  0  0  0
    4.5981   -2.0466    0.0000 C   0  0  0  0  0  0  0  0  0  0  0  0
    5.9641    1.9923    0.0000 C   0  0  0  0  0  0  0  0  0  0  0  0
    5.4641    0.4534    0.0000 C   0  0  0  0  0  0  0  0  0  0  0  0
    6.2731    1.0412    0.0000 C   0  0  0  0  0  0  0  0  0  0  0  0
    3.7320   -2.5466    0.0000 C   0  0  0  0  0  0  0  0  0  0  0  0
    2.8660   -4.0466    0.0000 C   0  0  0  0  0  0  0  0  0  0  0  0
    2.8660   -5.0466    0.0000 C   0  0  0  0  0  0  0  0  0  0  0  0
    2.0000   -5.5466    0.0000 C   0  0  0  0  0  0  0  0  0  0  0  0
    3.7320   -5.5466    0.0000 C   0  0  0  0  0  0  0  0  0  0  0  0
    2.0000   -6.5466    0.0000 C   0  0  0  0  0  0  0  0  0  0  0  0
    3.7320   -6.5466    0.0000 C   0  0  0  0  0  0  0  0  0  0  0  0
    2.8660   -7.0466    0.0000 C   0  0  0  0  0  0  0  0  0  0  0  0
    6.9454    5.4050    0.0000 H   0  0  0  0  0  0  0  0  0  0  0  0
    7.3278    5.9390    0.0000 H   0  0  0  0  0  0  0  0  0  0  0  0
    7.2411    6.7642    0.0000 H   0  0  0  0  0  0  0  0  0  0  0  0
    4.7280    5.6453    0.0000 H   0  0  0  0  0  0  0  0  0  0  0  0
    5.2832    5.0287    0.0000 H   0  0  0  0  0  0  0  0  0  0  0  0
    7.1636    4.0779    0.0000 H   0  0  0  0  0  0  0  0  0  0  0  0
    7.2469    4.8706    0.0000 H   0  0  0  0  0  0  0  0  0  0  0  0
    6.6587    7.4110    0.0000 H   0  0  0  0  0  0  0  0  0  0  0  0
    5.8471    7.5835    0.0000 H   0  0  0  0  0  0  0  0  0  0  0  0
    5.5286    3.7796    0.0000 H   0  0  0  0  0  0  0  0  0  0  0  0
    4.3860   -0.4640    0.0000 H   0  0  0  0  0  0  0  0  0  0  0  0
    3.9875   -1.1542    0.0000 H   0  0  0  0  0  0  0  0  0  0  0  0
    5.6762   -1.1292    0.0000 H   0  0  0  0  0  0  0  0  0  0  0  0
    6.0747   -0.4389    0.0000 H   0  0  0  0  0  0  0  0  0  0  0  0
    4.8101   -2.6292    0.0000 H   0  0  0  0  0  0  0  0  0  0  0  0
    5.2087   -1.9389    0.0000 H   0  0  0  0  0  0  0  0  0  0  0  0
    6.8628    0.8496    0.0000 H   0  0  0  0  0  0  0  0  0  0  0  0
    3.5200   -1.9640    0.0000 H   0  0  0  0  0  0  0  0  0  0  0  0
    3.1215   -2.6542    0.0000 H   0  0  0  0  0  0  0  0  0  0  0  0
    2.6540   -3.4640    0.0000 H   0  0  0  0  0  0  0  0  0  0  0  0
    2.2554   -4.1542    0.0000 H   0  0  0  0  0  0  0  0  0  0  0  0
    1.4631   -5.2366    0.0000 H   0  0  0  0  0  0  0  0  0  0  0  0
    4.2690   -5.2366    0.0000 H   0  0  0  0  0  0  0  0  0  0  0  0
    1.4631   -6.8566    0.0000 H   0  0  0  0  0  0  0  0  0  0  0  0
    4.2690   -6.8566    0.0000 H   0  0  0  0  0  0  0  0  0  0  0  0
    2.8660   -7.6666    0.0000 H   0  0  0  0  0  0  0  0  0  0  0  0
  1  9  1  0  0  0  0
  1 11  1  0  0  0  0
  2  6  1  0  0  0  0
  2 17  1  0  0  0  0
  3 19  1  0  0  0  0
  3 20  1  0  0  0  0
  4 12  2  0  0  0  0
  5 10  1  0  0  0  0
  5 12  1  0  0  0  0
  5 36  1  0  0  0  0
  6 16  2  0  0  0  0
  7  8  1  0  0  0  0
  7  9  1  0  0  0  0
  7 10  1  0  0  0  0
  7 27  1  0  0  0  0
  8 11  1  0  0  0  0
  8 28  1  0  0  0  0
  8 29  1  0  0  0  0
  9 30  1  0  0  0  0
  9 31  1  0  0  0  0
 10 32  1  0  0  0  0
 10 33  1  0  0  0  0
 11 34  1  0  0  0  0
 11 35  1  0  0  0  0
 12 16  1  0  0  0  0
 13 14  1  0  0  0  0
 13 15  1  0  0  0  0
 13 37  1  0  0  0  0
 13 38  1  0  0  0  0
 14 17  1  0  0  0  0
 14 39  1  0  0  0  0
 14 40  1  0  0  0  0
 15 19  1  0  0  0  0
 15 41  1  0  0  0  0
 15 42  1  0  0  0  0
 16 18  1  0  0  0  0
 17 18  2  0  0  0  0
 18 43  1  0  0  0  0
 19 44  1  0  0  0  0
 19 45  1  0  0  0  0
 20 21  1  0  0  0  0
 20 46  1  0  0  0  0
 20 47  1  0  0  0  0
 21 22  2  0  0  0  0
 21 23  1  0  0  0  0
 22 24  1  0  0  0  0
 22 48  1  0  0  0  0
 23 25  2  0  0  0  0
 23 49  1  0  0  0  0
 24 26  2  0  0  0  0
 24 50  1  0  0  0  0
 25 26  1  0  0  0  0
 25 51  1  0  0  0  0
 26 52  1  0  0  0  0
M  END
> <PUBCHEM_COMPOUND_CID>
90325947

> <PUBCHEM_COMPOUND_CANONICALIZED>
1

> <PUBCHEM_CACTVS_COMPLEXITY>
415

> <PUBCHEM_CACTVS_HBOND_ACCEPTOR>
5

> <PUBCHEM_CACTVS_HBOND_DONOR>
1

> <PUBCHEM_CACTVS_ROTATABLE_BOND>
10

> <PUBCHEM_CACTVS_SUBSKEYS>
AAADceB7OAAAAAAAAAAAAAAAAAAAAWJAAAAwAAAAAAAAAAABwAAAHgAUAAAADQzhngYwhJLQBACpA6VyUgCCAAAmIgAomKG+bNoIZjqAtZuWMYhm1hmI6ce/7KyOAAAAAAAAAAAAAAAAAAAAAAAAAAAAAA==

> <PUBCHEM_IUPAC_OPENEYE_NAME>
5-(4-benzyloxybutyl)-N-(tetrahydrofuran-3-ylmethyl)isoxazole-3-carboxamide

> <PUBCHEM_IUPAC_CAS_NAME>
N-(3-oxolanylmethyl)-5-(4-phenylmethoxybutyl)-3-isoxazolecarboxamide

> <PUBCHEM_IUPAC_NAME_MARKUP>
<I>N</I>-(oxolan-3-ylmethyl)-5-(4-phenylmethoxybutyl)-1,2-oxazole-3-carboxamide

> <PUBCHEM_IUPAC_NAME>
N-(oxolan-3-ylmethyl)-5-(4-phenylmethoxybutyl)-1,2-oxazole-3-carboxamide

> <PUBCHEM_IUPAC_SYSTEMATIC_NAME>
N-(oxolan-3-ylmethyl)-5-(4-phenylmethoxybutyl)-1,2-oxazole-3-carboxamide

> <PUBCHEM_IUPAC_TRADITIONAL_NAME>
5-(4-benzoxybutyl)-N-(tetrahydrofuran-3-ylmethyl)isoxazole-3-carboxamide

> <PUBCHEM_IUPAC_INCHI>
InChI=1S/C20H26N2O4/c23-20(21-13-17-9-11-25-15-17)19-12-18(26-22-19)8-4-5-10-24-14-16-6-2-1-3-7-16/h1-3,6-7,12,17H,4-5,8-11,13-15H2,(H,21,23)

> <PUBCHEM_IUPAC_INCHIKEY>
PAGMKBALAXZLOA-UHFFFAOYSA-N

> <PUBCHEM_XLOGP3_AA>
2.6

> <PUBCHEM_EXACT_MASS>
358.189257

> <PUBCHEM_MOLECULAR_FORMULA>
C20H26N2O4

> <PUBCHEM_MOLECULAR_WEIGHT>
358.4

> <PUBCHEM_OPENEYE_CAN_SMILES>
C1COCC1CNC(=O)C2=NOC(=C2)CCCCOCC3=CC=CC=C3

> <PUBCHEM_OPENEYE_ISO_SMILES>
C1COCC1CNC(=O)C2=NOC(=C2)CCCCOCC3=CC=CC=C3

> <PUBCHEM_CACTVS_TPSA>
73.6

> <PUBCHEM_MONOISOTOPIC_WEIGHT>
358.189257

> <PUBCHEM_TOTAL_CHARGE>
0

> <PUBCHEM_HEAVY_ATOM_COUNT>
26

> <PUBCHEM_ATOM_DEF_STEREO_COUNT>
0

> <PUBCHEM_ATOM_UDEF_STEREO_COUNT>
1

> <PUBCHEM_BOND_DEF_STEREO_COUNT>
0

> <PUBCHEM_BOND_UDEF_STEREO_COUNT>
0

> <PUBCHEM_ISOTOPIC_ATOM_COUNT>
0

> <PUBCHEM_COMPONENT_COUNT>
1

> <PUBCHEM_CACTVS_TAUTO_COUNT>
-1

> <PUBCHEM_COORDINATE_TYPE>
1
5
255

> <PUBCHEM_BONDANNOTATIONS>
16  18  8
17  18  8
2  17  8
2  6  8
21  22  8
21  23  8
22  24  8
23  25  8
24  26  8
25  26  8
6  16  8
7  10  3

$$$$
90784389
  -OEChem-02212016592D

 73 77  0     1  0  0  0  0  0999 V2000
    5.3147   -5.5580    0.0000 F   0  0  0  0  0  0  0  0  0  0  0  0
   11.4049    0.2208    0.0000 O   0  0  0  0  0  0  0  0  0  0  0  0
   10.7275   -4.2604    0.0000 O   0  0  0  0  0  0  0  0  0  0  0  0
    7.0468   -2.5580    0.0000 O   0  0  0  0  0  0  0  0  0  0  0  0
    9.0062   -4.7216    0.0000 O   0  0  0  0  0  0  0  0  0  0  0  0
    4.4487   -0.0580    0.0000 O   0  0  0  0  0  0  0  0  0  0  0  0
    5.3147    3.4420    0.0000 O   0  0  0  0  0  0  0  0  0  0  0  0
    2.0000    3.7784    0.0000 O   0  0  0  0  0  0  0  0  0  0  0  0
   10.1449    1.4808    0.0000 N   0  0  0  0  0  0  0  0  0  0  0  0
    7.9128   -1.0580    0.0000 N   0  0  0  0  0  0  0  0  0  0  0  0
    6.1808   -0.0580    0.0000 N   0  0  0  0  0  0  0  0  0  0  0  0
    4.4487    1.9420    0.0000 N   0  0  0  0  0  0  0  0  0  0  0  0
    2.6691    3.0353    0.0000 N   0  0  0  0  0  0  0  0  0  0  0  0
    9.6448   -0.0580    0.0000 C   0  0  2  0  0  0  0  0  0  0  0  0
    9.6448   -1.0580    0.0000 C   0  0  0  0  0  0  0  0  0  0  0  0
    8.8358    0.5298    0.0000 C   0  0  0  0  0  0  0  0  0  0  0  0
    8.7788   -1.5580    0.0000 C   0  0  1  0  0  0  0  0  0  0  0  0
    9.1448    1.4808    0.0000 C   0  0  0  0  0  0  0  0  0  0  0  0
   10.4539    0.5298    0.0000 C   0  0  0  0  0  0  0  0  0  0  0  0
    8.7788   -2.5580    0.0000 C   0  0  0  0  0  0  0  0  0  0  0  0
    6.1808   -1.0580    0.0000 C   0  0  2  0  0  0  0  0  0  0  0  0
    7.0468   -1.5580    0.0000 C   0  0  0  0  0  0  0  0  0  0  0  0
    9.6448   -3.0580    0.0000 C   0  0  0  0  0  0  0  0  0  0  0  0
    5.3147   -1.5580    0.0000 C   0  0  0  0  0  0  0  0  0  0  0  0
   10.5584   -2.6512    0.0000 C   0  0  0  0  0  0  0  0  0  0  0  0
   11.2275   -3.3944    0.0000 C   0  0  0  0  0  0  0  0  0  0  0  0
    9.7494   -4.0525    0.0000 C   0  0  0  0  0  0  0  0  0  0  0  0
    5.3147   -2.5580    0.0000 C   0  0  0  0  0  0  0  0  0  0  0  0
    5.3147    0.4420    0.0000 C   0  0  0  0  0  0  0  0  0  0  0  0
    7.0468    0.4420    0.0000 C   0  0  0  0  0  0  0  0  0  0  0  0
    5.3147    1.4420    0.0000 C   0  0  0  0  0  0  0  0  0  0  0  0
    6.1808   -3.0580    0.0000 C   0  0  0  0  0  0  0  0  0  0  0  0
    4.4487   -3.0580    0.0000 C   0  0  0  0  0  0  0  0  0  0  0  0
    7.0468    1.4420    0.0000 C   0  0  0  0  0  0  0  0  0  0  0  0
    6.1808    1.9420    0.0000 C   0  0  0  0  0  0  0  0  0  0  0  0
    6.1808   -4.0580    0.0000 C   0  0  0  0  0  0  0  0  0  0  0  0
    4.4487   -4.0580    0.0000 C   0  0  0  0  0  0  0  0  0  0  0  0
    5.3147   -4.5580    0.0000 C   0  0  0  0  0  0  0  0  0  0  0  0
    4.4487    2.9420    0.0000 C   0  0  0  0  0  0  0  0  0  0  0  0
    3.5827    3.4420    0.0000 C   0  0  0  0  0  0  0  0  0  0  0  0
    3.4782    4.4365    0.0000 C   0  0  0  0  0  0  0  0  0  0  0  0
    2.5000    4.6444    0.0000 C   0  0  0  0  0  0  0  0  0  0  0  0
    2.0933    5.5580    0.0000 C   0  0  0  0  0  0  0  0  0  0  0  0
    9.0924   -0.3395    0.0000 H   0  0  0  0  0  0  0  0  0  0  0  0
    9.8569   -1.6406    0.0000 H   0  0  0  0  0  0  0  0  0  0  0  0
   10.2554   -0.9503    0.0000 H   0  0  0  0  0  0  0  0  0  0  0  0
    8.2694    0.7820    0.0000 H   0  0  0  0  0  0  0  0  0  0  0  0
    8.5258   -0.0071    0.0000 H   0  0  0  0  0  0  0  0  0  0  0  0
    8.2419   -1.8680    0.0000 H   0  0  0  0  0  0  0  0  0  0  0  0
    9.2097    2.0975    0.0000 H   0  0  0  0  0  0  0  0  0  0  0  0
    8.5384    1.6098    0.0000 H   0  0  0  0  0  0  0  0  0  0  0  0
   10.5093    1.9824    0.0000 H   1  0  0  0  0  0  0  0  0  0  0  0
    7.9128   -0.4380    0.0000 H   0  0  0  0  0  0  0  0  0  0  0  0
    8.2419   -2.8680    0.0000 H   0  0  0  0  0  0  0  0  0  0  0  0
    6.7177   -0.7480    0.0000 H   0  0  0  0  0  0  0  0  0  0  0  0
    5.1027   -0.9754    0.0000 H   0  0  0  0  0  0  0  0  0  0  0  0
    4.7042   -1.6656    0.0000 H   0  0  0  0  0  0  0  0  0  0  0  0
   11.0600   -2.2868    0.0000 H   0  0  0  0  0  0  0  0  0  0  0  0
   10.2484   -2.1143    0.0000 H   0  0  0  0  0  0  0  0  0  0  0  0
   11.7291   -3.7588    0.0000 H   0  0  0  0  0  0  0  0  0  0  0  0
   11.6424   -2.9336    0.0000 H   0  0  0  0  0  0  0  0  0  0  0  0
    7.5837    0.1320    0.0000 H   0  0  0  0  0  0  0  0  0  0  0  0
    6.7177   -2.7480    0.0000 H   0  0  0  0  0  0  0  0  0  0  0  0
    3.9118   -2.7480    0.0000 H   0  0  0  0  0  0  0  0  0  0  0  0
    7.5837    1.7520    0.0000 H   0  0  0  0  0  0  0  0  0  0  0  0
    6.1808    2.5620    0.0000 H   0  0  0  0  0  0  0  0  0  0  0  0
    6.7177   -4.3680    0.0000 H   0  0  0  0  0  0  0  0  0  0  0  0
    3.9118   -4.3680    0.0000 H   0  0  0  0  0  0  0  0  0  0  0  0
    3.9118    1.6320    0.0000 H   0  0  0  0  0  0  0  0  0  0  0  0
    3.9389    4.8514    0.0000 H   0  0  0  0  0  0  0  0  0  0  0  0
    2.6597    5.8102    0.0000 H   0  0  0  0  0  0  0  0  0  0  0  0
    1.8411    6.1244    0.0000 H   0  0  0  0  0  0  0  0  0  0  0  0
    1.5269    5.3058    0.0000 H   0  0  0  0  0  0  0  0  0  0  0  0
  1 38  1  0  0  0  0
  2 19  2  0  0  0  0
  3 26  1  0  0  0  0
  3 27  1  0  0  0  0
  4 22  2  0  0  0  0
  5 27  2  0  0  0  0
  6 29  2  0  0  0  0
  7 39  2  0  0  0  0
  8 13  1  0  0  0  0
  8 42  1  0  0  0  0
  9 18  1  0  0  0  0
  9 19  1  0  0  0  0
  9 52  1  0  0  0  0
 17 10  1  1  0  0  0
 10 22  1  0  0  0  0
 10 53  1  0  0  0  0
 11 21  1  0  0  0  0
 11 29  1  0  0  0  0
 11 30  1  0  0  0  0
 12 31  1  0  0  0  0
 12 39  1  0  0  0  0
 12 69  1  0  0  0  0
 13 40  2  0  0  0  0
 14 15  1  6  0  0  0
 14 16  1  0  0  0  0
 14 19  1  0  0  0  0
 14 44  1  0  0  0  0
 15 17  1  0  0  0  0
 15 45  1  0  0  0  0
 15 46  1  0  0  0  0
 16 18  1  0  0  0  0
 16 47  1  0  0  0  0
 16 48  1  0  0  0  0
 17 20  1  0  0  0  0
 17 49  1  0  0  0  0
 18 50  1  0  0  0  0
 18 51  1  0  0  0  0
 20 23  2  3  0  0  0
 20 54  1  0  0  0  0
 21 22  1  6  0  0  0
 21 24  1  0  0  0  0
 21 55  1  0  0  0  0
 23 25  1  0  0  0  0
 23 27  1  0  0  0  0
 24 28  1  0  0  0  0
 24 56  1  0  0  0  0
 24 57  1  0  0  0  0
 25 26  1  0  0  0  0
 25 58  1  0  0  0  0
 25 59  1  0  0  0  0
 26 60  1  0  0  0  0
 26 61  1  0  0  0  0
 28 32  2  0  0  0  0
 28 33  1  0  0  0  0
 29 31  1  0  0  0  0
 30 34  2  0  0  0  0
 30 62  1  0  0  0  0
 31 35  2  0  0  0  0
 32 36  1  0  0  0  0
 32 63  1  0  0  0  0
 33 37  2  0  0  0  0
 33 64  1  0  0  0  0
 34 35  1  0  0  0  0
 34 65  1  0  0  0  0
 35 66  1  0  0  0  0
 36 38  2  0  0  0  0
 36 67  1  0  0  0  0
 37 38  1  0  0  0  0
 37 68  1  0  0  0  0
 39 40  1  0  0  0  0
 40 41  1  0  0  0  0
 41 42  2  0  0  0  0
 41 70  1  0  0  0  0
 42 43  1  0  0  0  0
 43 71  1  0  0  0  0
 43 72  1  0  0  0  0
 43 73  1  0  0  0  0
M  ISO  1  52   2
M  END
> <PUBCHEM_COMPOUND_CID>
90784389

> <PUBCHEM_COMPOUND_CANONICALIZED>
1

> <PUBCHEM_CACTVS_COMPLEXITY>
1210

> <PUBCHEM_CACTVS_HBOND_ACCEPTOR>
9

> <PUBCHEM_CACTVS_HBOND_DONOR>
3

> <PUBCHEM_CACTVS_ROTATABLE_BOND>
10

> <PUBCHEM_CACTVS_SUBSKEYS>
AAADceB7uQAAAAAAAAAAAAAAAAAAAWLEgAAwQAAAAAAAAAABwAAAHwAUAAAADSzhng4yjJPQBACpA6X2WgCCAAAmIgAomKG+bNoIZjqAtbOWMYhm1hiI6cc/iICOAAAAAAAAAAAAAAAAAAAAAAAAAAAAAA==

> <PUBCHEM_IUPAC_OPENEYE_NAME>
N-[1-[(1S)-2-[[(1S)-1-[[(3S)-1-deuterio-2-oxo-pyrrolidin-3-yl]methyl]-2-(2-oxotetrahydrofuran-3-ylidene)ethyl]amino]-1-[(4-fluorophenyl)methyl]-2-oxo-ethyl]-2-oxo-3-pyridyl]-5-methyl-isoxazole-3-carboxamide

> <PUBCHEM_IUPAC_CAS_NAME>
N-[1-[(2S)-1-[[(2S)-1-[(3S)-1-deuterio-2-oxo-3-pyrrolidinyl]-3-(2-oxo-3-oxolanylidene)propan-2-yl]amino]-3-(4-fluorophenyl)-1-oxopropan-2-yl]-2-oxo-3-pyridinyl]-5-methyl-3-isoxazolecarboxamide

> <PUBCHEM_IUPAC_NAME_MARKUP>
<I>N</I>-[1-[(2<I>S</I>)-1-[[(2<I>S</I>)-1-[(3<I>S</I>)-1-deuterio-2-oxopyrrolidin-3-yl]-3-(2-oxooxolan-3-ylidene)propan-2-yl]amino]-3-(4-fluorophenyl)-1-oxopropan-2-yl]-2-oxopyridin-3-yl]-5-methyl-1,2-oxazole-3-carboxamide

> <PUBCHEM_IUPAC_NAME>
N-[1-[(2S)-1-[[(2S)-1-[(3S)-1-deuterio-2-oxopyrrolidin-3-yl]-3-(2-oxooxolan-3-ylidene)propan-2-yl]amino]-3-(4-fluorophenyl)-1-oxopropan-2-yl]-2-oxopyridin-3-yl]-5-methyl-1,2-oxazole-3-carboxamide

> <PUBCHEM_IUPAC_SYSTEMATIC_NAME>
N-[1-[(2S)-1-[[(2S)-1-[(3S)-1-deuterio-2-oxidanylidene-pyrrolidin-3-yl]-3-(2-oxidanylideneoxolan-3-ylidene)propan-2-yl]amino]-3-(4-fluorophenyl)-1-oxidanylidene-propan-2-yl]-2-oxidanylidene-pyridin-3-yl]-5-methyl-1,2-oxazole-3-carboxamide

> <PUBCHEM_IUPAC_TRADITIONAL_NAME>
N-[1-[(1S)-2-[[(1S)-1-[[(3S)-1-deuterio-2-keto-pyrrolidin-3-yl]methyl]-2-(2-ketotetrahydrofuran-3-ylidene)ethyl]amino]-1-(4-fluorobenzyl)-2-keto-ethyl]-2-keto-3-pyridyl]-5-methyl-isoxazole-3-carboxamide

> <PUBCHEM_IUPAC_INCHI>
InChI=1S/C30H30FN5O7/c1-17-13-24(35-43-17)27(38)34-23-3-2-11-36(29(23)40)25(14-18-4-6-21(31)7-5-18)28(39)33-22(15-19-8-10-32-26(19)37)16-20-9-12-42-30(20)41/h2-7,11,13,16,19,22,25H,8-10,12,14-15H2,1H3,(H,32,37)(H,33,39)(H,34,38)/t19-,22-,25-/m0/s1/i/hD

> <PUBCHEM_IUPAC_INCHIKEY>
SYRRIXCEQDEKDO-NSSSWZFHSA-N

> <PUBCHEM_XLOGP3_AA>
2

> <PUBCHEM_EXACT_MASS>
592.219203

> <PUBCHEM_MOLECULAR_FORMULA>
C30H30FN5O7

> <PUBCHEM_MOLECULAR_WEIGHT>
592.6

> <PUBCHEM_OPENEYE_CAN_SMILES>
CC1=CC(=NO1)C(=O)NC2=CC=CN(C2=O)C(CC3=CC=C(C=C3)F)C(=O)NC(CC4CCNC4=O)C=C5CCOC5=O

> <PUBCHEM_OPENEYE_ISO_SMILES>
[2H]N1CC[C@H](C1=O)C[C@@H](C=C2CCOC2=O)NC(=O)[C@H](CC3=CC=C(C=C3)F)N4C=CC=C(C4=O)NC(=O)C5=NOC(=C5)C

> <PUBCHEM_CACTVS_TPSA>
160

> <PUBCHEM_MONOISOTOPIC_WEIGHT>
592.219203

> <PUBCHEM_TOTAL_CHARGE>
0

> <PUBCHEM_HEAVY_ATOM_COUNT>
43

> <PUBCHEM_ATOM_DEF_STEREO_COUNT>
3

> <PUBCHEM_ATOM_UDEF_STEREO_COUNT>
0

> <PUBCHEM_BOND_DEF_STEREO_COUNT>
0

> <PUBCHEM_BOND_UDEF_STEREO_COUNT>
1

> <PUBCHEM_ISOTOPIC_ATOM_COUNT>
1

> <PUBCHEM_COMPONENT_COUNT>
1

> <PUBCHEM_CACTVS_TAUTO_COUNT>
-1

> <PUBCHEM_COORDINATE_TYPE>
1
5
255

> <PUBCHEM_BONDANNOTATIONS>
17  10  5
11  29  8
11  30  8
13  40  8
14  15  6
20  23  1
21  22  6
28  32  8
28  33  8
29  31  8
30  34  8
31  35  8
32  36  8
33  37  8
34  35  8
36  38  8
37  38  8
40  41  8
41  42  8
8  13  8
8  42  8

$$$$
90972871
  -OEChem-02212016592D

 80 83  0     1  0  0  0  0  0999 V2000
    5.3147   -5.0194    0.0000 F   0  0  0  0  0  0  0  0  0  0  0  0
    4.2213    0.3169    0.0000 O   0  0  0  0  0  0  0  0  0  0  0  0
    7.0468    0.9806    0.0000 O   0  0  0  0  0  0  0  0  0  0  0  0
    6.6808    5.0194    0.0000 O   0  0  0  0  0  0  0  0  0  0  0  0
    7.9128    0.4806    0.0000 O   0  0  0  0  0  0  0  0  0  0  0  0
    7.9408    3.7594    0.0000 O   0  0  0  0  0  0  0  0  0  0  0  0
   10.5109   -2.0194    0.0000 O   0  0  0  0  0  0  0  0  0  0  0  0
   12.9596   -0.1830    0.0000 O   0  0  0  0  0  0  0  0  0  0  0  0
    2.5000    0.7781    0.0000 N   0  0  0  0  0  0  0  0  0  0  0  0
    5.3147    0.9806    0.0000 N   0  0  0  0  0  0  0  0  0  0  0  0
    9.6448   -0.5194    0.0000 N   0  0  0  0  0  0  0  0  0  0  0  0
   12.2905   -0.9262    0.0000 N   0  0  0  0  0  0  0  0  0  0  0  0
    3.5827    1.9806    0.0000 C   0  0  2  0  0  0  0  0  0  0  0  0
    4.4487    2.4806    0.0000 C   0  0  0  0  0  0  0  0  0  0  0  0
    2.6691    2.3873    0.0000 C   0  0  0  0  0  0  0  0  0  0  0  0
    5.3147    1.9806    0.0000 C   0  0  1  0  0  0  0  0  0  0  0  0
    2.0000    1.6442    0.0000 C   0  0  0  0  0  0  0  0  0  0  0  0
    3.4782    0.9861    0.0000 C   0  0  0  0  0  0  0  0  0  0  0  0
    6.1808   -0.5194    0.0000 C   0  0  2  0  0  0  0  0  0  0  0  0
    6.1808    2.4806    0.0000 C   0  0  0  0  0  0  0  0  0  0  0  0
    7.0468   -1.0194    0.0000 C   0  0  0  0  0  0  0  0  0  0  0  0
    6.1808    0.4806    0.0000 C   0  0  0  0  0  0  0  0  0  0  0  0
    5.3147   -1.0194    0.0000 C   0  0  0  0  0  0  0  0  0  0  0  0
    8.7788   -1.0194    0.0000 C   0  0  2  0  0  0  0  0  0  0  0  0
    7.9128   -0.5194    0.0000 C   0  0  0  0  0  0  0  0  0  0  0  0
    8.7788   -2.0194    0.0000 C   0  0  0  0  0  0  0  0  0  0  0  0
    6.1808    3.4806    0.0000 C   0  0  0  0  0  0  0  0  0  0  0  0
    5.3717    4.0684    0.0000 C   0  0  0  0  0  0  0  0  0  0  0  0
    5.3147   -2.0194    0.0000 C   0  0  0  0  0  0  0  0  0  0  0  0
    9.6448   -2.5194    0.0000 C   0  0  0  0  0  0  0  0  0  0  0  0
    7.9128   -2.5194    0.0000 C   0  0  0  0  0  0  0  0  0  0  0  0
    5.6808    5.0194    0.0000 C   0  0  0  0  0  0  0  0  0  0  0  0
    6.9898    4.0684    0.0000 C   0  0  0  0  0  0  0  0  0  0  0  0
    6.1808   -2.5194    0.0000 C   0  0  0  0  0  0  0  0  0  0  0  0
    4.4487   -2.5194    0.0000 C   0  0  0  0  0  0  0  0  0  0  0  0
   10.5109   -1.0194    0.0000 C   0  0  0  0  0  0  0  0  0  0  0  0
    6.1808   -3.5194    0.0000 C   0  0  0  0  0  0  0  0  0  0  0  0
    4.4487   -3.5194    0.0000 C   0  0  0  0  0  0  0  0  0  0  0  0
    5.3147   -4.0194    0.0000 C   0  0  0  0  0  0  0  0  0  0  0  0
   11.3769   -0.5194    0.0000 C   0  0  0  0  0  0  0  0  0  0  0  0
   11.4814    0.4751    0.0000 C   0  0  0  0  0  0  0  0  0  0  0  0
   12.4596    0.6830    0.0000 C   0  0  0  0  0  0  0  0  0  0  0  0
   12.8663    1.5966    0.0000 C   0  0  0  0  0  0  0  0  0  0  0  0
    4.1026    1.6429    0.0000 H   0  0  0  0  0  0  0  0  0  0  0  0
    4.8472    2.9555    0.0000 H   0  0  0  0  0  0  0  0  0  0  0  0
    4.0502    2.9555    0.0000 H   0  0  0  0  0  0  0  0  0  0  0  0
    2.9791    2.9242    0.0000 H   0  0  0  0  0  0  0  0  0  0  0  0
    2.1675    2.7517    0.0000 H   0  0  0  0  0  0  0  0  0  0  0  0
    5.8517    1.6706    0.0000 H   0  0  0  0  0  0  0  0  0  0  0  0
    1.5851    2.1049    0.0000 H   0  0  0  0  0  0  0  0  0  0  0  0
    1.4984    1.2797    0.0000 H   0  0  0  0  0  0  0  0  0  0  0  0
    6.1808   -1.1394    0.0000 H   0  0  0  0  0  0  0  0  0  0  0  0
    2.2478    0.2117    0.0000 H   0  0  0  0  0  0  0  0  0  0  0  0
    4.7778    0.6706    0.0000 H   0  0  0  0  0  0  0  0  0  0  0  0
    6.7177    2.1706    0.0000 H   0  0  0  0  0  0  0  0  0  0  0  0
    6.6482   -1.4944    0.0000 H   0  0  0  0  0  0  0  0  0  0  0  0
    7.4453   -1.4944    0.0000 H   0  0  0  0  0  0  0  0  0  0  0  0
    5.1027   -0.4368    0.0000 H   0  0  0  0  0  0  0  0  0  0  0  0
    4.7042   -1.1271    0.0000 H   0  0  0  0  0  0  0  0  0  0  0  0
    8.7788   -0.3994    0.0000 H   0  0  0  0  0  0  0  0  0  0  0  0
    9.3158   -1.7094    0.0000 H   0  0  0  0  0  0  0  0  0  0  0  0
    4.8053    4.3205    0.0000 H   0  0  0  0  0  0  0  0  0  0  0  0
    5.0617    3.5314    0.0000 H   0  0  0  0  0  0  0  0  0  0  0  0
    9.6448    0.1006    0.0000 H   0  0  0  0  0  0  0  0  0  0  0  0
    9.3348   -3.0564    0.0000 H   0  0  0  0  0  0  0  0  0  0  0  0
   10.1818   -2.8294    0.0000 H   0  0  0  0  0  0  0  0  0  0  0  0
    9.9548   -1.9825    0.0000 H   0  0  0  0  0  0  0  0  0  0  0  0
    7.6028   -1.9825    0.0000 H   0  0  0  0  0  0  0  0  0  0  0  0
    7.3759   -2.8294    0.0000 H   0  0  0  0  0  0  0  0  0  0  0  0
    8.2228   -3.0564    0.0000 H   0  0  0  0  0  0  0  0  0  0  0  0
    5.7456    5.6360    0.0000 H   0  0  0  0  0  0  0  0  0  0  0  0
    5.0743    5.1483    0.0000 H   0  0  0  0  0  0  0  0  0  0  0  0
    6.7177   -2.2094    0.0000 H   0  0  0  0  0  0  0  0  0  0  0  0
    3.9118   -2.2094    0.0000 H   0  0  0  0  0  0  0  0  0  0  0  0
    6.7177   -3.8294    0.0000 H   0  0  0  0  0  0  0  0  0  0  0  0
    3.9118   -3.8294    0.0000 H   0  0  0  0  0  0  0  0  0  0  0  0
   11.0207    0.8900    0.0000 H   0  0  0  0  0  0  0  0  0  0  0  0
   13.4327    1.3444    0.0000 H   0  0  0  0  0  0  0  0  0  0  0  0
   13.1185    2.1630    0.0000 H   0  0  0  0  0  0  0  0  0  0  0  0
   12.2999    1.8487    0.0000 H   0  0  0  0  0  0  0  0  0  0  0  0
  1 39  1  0  0  0  0
  2 18  2  0  0  0  0
  3 22  2  0  0  0  0
  4 32  1  0  0  0  0
  4 33  1  0  0  0  0
  5 25  2  0  0  0  0
  6 33  2  0  0  0  0
  7 36  2  0  0  0  0
  8 12  1  0  0  0  0
  8 42  1  0  0  0  0
  9 17  1  0  0  0  0
  9 18  1  0  0  0  0
  9 53  1  0  0  0  0
 16 10  1  1  0  0  0
 10 22  1  0  0  0  0
 10 54  1  0  0  0  0
 24 11  1  1  0  0  0
 11 36  1  0  0  0  0
 11 64  1  0  0  0  0
 12 40  2  0  0  0  0
 13 14  1  1  0  0  0
 13 15  1  0  0  0  0
 13 18  1  0  0  0  0
 13 44  1  0  0  0  0
 14 16  1  0  0  0  0
 14 45  1  0  0  0  0
 14 46  1  0  0  0  0
 15 17  1  0  0  0  0
 15 47  1  0  0  0  0
 15 48  1  0  0  0  0
 16 20  1  0  0  0  0
 16 49  1  0  0  0  0
 17 50  1  0  0  0  0
 17 51  1  0  0  0  0
 19 21  1  1  0  0  0
 19 22  1  0  0  0  0
 19 23  1  0  0  0  0
 19 52  1  0  0  0  0
 20 27  2  3  0  0  0
 20 55  1  0  0  0  0
 21 25  1  0  0  0  0
 21 56  1  0  0  0  0
 21 57  1  0  0  0  0
 23 29  1  0  0  0  0
 23 58  1  0  0  0  0
 23 59  1  0  0  0  0
 24 25  1  0  0  0  0
 24 26  1  0  0  0  0
 24 60  1  0  0  0  0
 26 30  1  0  0  0  0
 26 31  1  0  0  0  0
 26 61  1  0  0  0  0
 27 28  1  0  0  0  0
 27 33  1  0  0  0  0
 28 32  1  0  0  0  0
 28 62  1  0  0  0  0
 28 63  1  0  0  0  0
 29 34  2  0  0  0  0
 29 35  1  0  0  0  0
 30 65  1  0  0  0  0
 30 66  1  0  0  0  0
 30 67  1  0  0  0  0
 31 68  1  0  0  0  0
 31 69  1  0  0  0  0
 31 70  1  0  0  0  0
 32 71  1  0  0  0  0
 32 72  1  0  0  0  0
 34 37  1  0  0  0  0
 34 73  1  0  0  0  0
 35 38  2  0  0  0  0
 35 74  1  0  0  0  0
 36 40  1  0  0  0  0
 37 39  2  0  0  0  0
 37 75  1  0  0  0  0
 38 39  1  0  0  0  0
 38 76  1  0  0  0  0
 40 41  1  0  0  0  0
 41 42  2  0  0  0  0
 41 77  1  0  0  0  0
 42 43  1  0  0  0  0
 43 78  1  0  0  0  0
 43 79  1  0  0  0  0
 43 80  1  0  0  0  0
M  END
> <PUBCHEM_COMPOUND_CID>
90972871

> <PUBCHEM_COMPOUND_CANONICALIZED>
1

> <PUBCHEM_CACTVS_COMPLEXITY>
1070

> <PUBCHEM_CACTVS_HBOND_ACCEPTOR>
9

> <PUBCHEM_CACTVS_HBOND_DONOR>
3

> <PUBCHEM_CACTVS_ROTATABLE_BOND>
13

> <PUBCHEM_CACTVS_SUBSKEYS>
AAADcfB7uQAAAAAAAAAAAAAAAAAAAWLEgAAwAAAAAAAAAAABwAAAHwAUAAAADSzhng4yjJLQBACpA6XyWgCCAAAmIgAomKG+bNoIZjqAtbOWMYhm1hiI6cc/icCeAAAAAAAAAAAAAAAAAAAAAAAAAAAAAA==

> <PUBCHEM_IUPAC_OPENEYE_NAME>
N-[(1S,4R)-4-[(4-fluorophenyl)methyl]-1-isopropyl-2,5-dioxo-5-[[(1S)-1-[[(3S)-2-oxopyrrolidin-3-yl]methyl]-2-(2-oxotetrahydrofuran-3-ylidene)ethyl]amino]pentyl]-5-methyl-isoxazole-3-carboxamide

> <PUBCHEM_IUPAC_CAS_NAME>
N-[(3S,6R)-6-[(4-fluorophenyl)methyl]-2-methyl-4,7-dioxo-7-[[(2S)-1-(2-oxo-3-oxolanylidene)-3-[(3S)-2-oxo-3-pyrrolidinyl]propan-2-yl]amino]heptan-3-yl]-5-methyl-3-isoxazolecarboxamide

> <PUBCHEM_IUPAC_NAME_MARKUP>
<I>N</I>-[(3<I>S</I>,6<I>R</I>)-6-[(4-fluorophenyl)methyl]-2-methyl-4,7-dioxo-7-[[(2<I>S</I>)-1-(2-oxooxolan-3-ylidene)-3-[(3<I>S</I>)-2-oxopyrrolidin-3-yl]propan-2-yl]amino]heptan-3-yl]-5-methyl-1,2-oxazole-3-carboxamide

> <PUBCHEM_IUPAC_NAME>
N-[(3S,6R)-6-[(4-fluorophenyl)methyl]-2-methyl-4,7-dioxo-7-[[(2S)-1-(2-oxooxolan-3-ylidene)-3-[(3S)-2-oxopyrrolidin-3-yl]propan-2-yl]amino]heptan-3-yl]-5-methyl-1,2-oxazole-3-carboxamide

> <PUBCHEM_IUPAC_SYSTEMATIC_NAME>
N-[(3S,6R)-6-[(4-fluorophenyl)methyl]-2-methyl-4,7-bis(oxidanylidene)-7-[[(2S)-1-(2-oxidanylideneoxolan-3-ylidene)-3-[(3S)-2-oxidanylidenepyrrolidin-3-yl]propan-2-yl]amino]heptan-3-yl]-5-methyl-1,2-oxazole-3-carboxamide

> <PUBCHEM_IUPAC_TRADITIONAL_NAME>
N-[(1S,4R)-4-(4-fluorobenzyl)-1-isopropyl-2,5-diketo-5-[[(1S)-1-[[(3S)-2-ketopyrrolidin-3-yl]methyl]-2-(2-ketotetrahydrofuran-3-ylidene)ethyl]amino]pentyl]-5-methyl-isoxazole-3-carboxamide

> <PUBCHEM_IUPAC_INCHI>
InChI=1S/C31H37FN4O7/c1-17(2)27(35-30(40)25-12-18(3)43-36-25)26(37)16-22(13-19-4-6-23(32)7-5-19)29(39)34-24(14-20-8-10-33-28(20)38)15-21-9-11-42-31(21)41/h4-7,12,15,17,20,22,24,27H,8-11,13-14,16H2,1-3H3,(H,33,38)(H,34,39)(H,35,40)/t20-,22+,24-,27-/m0/s1

> <PUBCHEM_IUPAC_INCHIKEY>
CALKYRSEXBYKAI-QNKJOHNESA-N

> <PUBCHEM_XLOGP3_AA>
2.8

> <PUBCHEM_EXACT_MASS>
596.264628

> <PUBCHEM_MOLECULAR_FORMULA>
C31H37FN4O7

> <PUBCHEM_MOLECULAR_WEIGHT>
596.6

> <PUBCHEM_OPENEYE_CAN_SMILES>
CC1=CC(=NO1)C(=O)NC(C(C)C)C(=O)CC(CC2=CC=C(C=C2)F)C(=O)NC(CC3CCNC3=O)C=C4CCOC4=O

> <PUBCHEM_OPENEYE_ISO_SMILES>
CC1=CC(=NO1)C(=O)N[C@@H](C(C)C)C(=O)C[C@@H](CC2=CC=C(C=C2)F)C(=O)N[C@@H](C[C@@H]3CCNC3=O)C=C4CCOC4=O

> <PUBCHEM_CACTVS_TPSA>
157

> <PUBCHEM_MONOISOTOPIC_WEIGHT>
596.264628

> <PUBCHEM_TOTAL_CHARGE>
0

> <PUBCHEM_HEAVY_ATOM_COUNT>
43

> <PUBCHEM_ATOM_DEF_STEREO_COUNT>
4

> <PUBCHEM_ATOM_UDEF_STEREO_COUNT>
0

> <PUBCHEM_BOND_DEF_STEREO_COUNT>
0

> <PUBCHEM_BOND_UDEF_STEREO_COUNT>
1

> <PUBCHEM_ISOTOPIC_ATOM_COUNT>
0

> <PUBCHEM_COMPONENT_COUNT>
1

> <PUBCHEM_CACTVS_TAUTO_COUNT>
-1

> <PUBCHEM_COORDINATE_TYPE>
1
5
255

> <PUBCHEM_BONDANNOTATIONS>
16  10  5
24  11  5
12  40  8
13  14  5
19  21  5
20  27  1
29  34  8
29  35  8
34  37  8
35  38  8
37  39  8
38  39  8
40  41  8
41  42  8
8  12  8
8  42  8

$$$$
91060557
  -OEChem-02212016592D

132136  0     1  0  0  0  0  0999 V2000
    8.1113   15.6963    0.0000 O   0  0  0  0  0  0  0  0  0  0  0  0
    7.0179   19.3600    0.0000 O   0  0  0  0  0  0  0  0  0  0  0  0
    3.5538   20.3600    0.0000 O   0  0  0  0  0  0  0  0  0  0  0  0
    6.5991    2.6200    0.0000 O   0  0  0  0  0  0  0  0  0  0  0  0
    4.0010    5.1200    0.0000 O   0  0  0  0  0  0  0  0  0  0  0  0
    4.4198   23.8600    0.0000 O   0  0  0  0  0  0  0  0  0  0  0  0
    8.3312    0.6200    0.0000 O   0  0  0  0  0  0  0  0  0  0  0  0
    1.1051   24.1964    0.0000 O   0  0  0  0  0  0  0  0  0  0  0  0
    3.1350    8.6200    0.0000 O   0  0  0  0  0  0  0  0  0  0  0  0
    4.8671    8.6200    0.0000 O   0  0  0  0  0  0  0  0  0  0  0  0
    9.8326   16.1576    0.0000 N   0  0  0  0  0  0  0  0  0  0  0  0
    6.1519   17.8600    0.0000 N   0  0  0  0  0  0  0  0  0  0  0  0
    5.2858   20.3600    0.0000 N   0  0  0  0  0  0  0  0  0  0  0  0
    5.7331    5.1200    0.0000 N   0  0  0  0  0  0  0  0  0  0  0  0
    3.5538   22.3600    0.0000 N   0  0  0  0  0  0  0  0  0  0  0  0
    7.4651    4.1200    0.0000 N   0  0  0  0  0  0  0  0  0  0  0  0
    4.0010    7.1200    0.0000 N   0  0  0  0  0  0  0  0  0  0  0  0
   10.0632    0.6200    0.0000 N   0  0  0  0  0  0  0  0  0  0  0  0
    1.7742   23.4533    0.0000 N   0  0  0  0  0  0  0  0  0  0  0  0
    8.7500   17.3600    0.0000 C   0  0  1  0  0  0  0  0  0  0  0  0
    9.6635   17.7667    0.0000 C   0  0  0  0  0  0  0  0  0  0  0  0
    7.8839   17.8600    0.0000 C   0  0  0  0  0  0  0  0  0  0  0  0
   10.3326   17.0236    0.0000 C   0  0  0  0  0  0  0  0  0  0  0  0
    7.0179   17.3600    0.0000 C   0  0  1  0  0  0  0  0  0  0  0  0
    8.8545   16.3655    0.0000 C   0  0  0  0  0  0  0  0  0  0  0  0
    7.0179   16.3600    0.0000 C   0  0  0  0  0  0  0  0  0  0  0  0
    5.2858   19.3600    0.0000 C   0  0  2  0  0  0  0  0  0  0  0  0
    6.1519   18.8600    0.0000 C   0  0  0  0  0  0  0  0  0  0  0  0
    4.4198   18.8600    0.0000 C   0  0  0  0  0  0  0  0  0  0  0  0
    6.1519   15.8600    0.0000 C   0  0  0  0  0  0  0  0  0  0  0  0
    4.4198   17.8600    0.0000 C   0  0  0  0  0  0  0  0  0  0  0  0
    6.1519   14.8600    0.0000 C   0  0  0  0  0  0  0  0  0  0  0  0
    4.4198   20.8600    0.0000 C   0  0  0  0  0  0  0  0  0  0  0  0
    6.1519   20.8600    0.0000 C   0  0  0  0  0  0  0  0  0  0  0  0
    4.4198   21.8600    0.0000 C   0  0  0  0  0  0  0  0  0  0  0  0
    6.1519   21.8600    0.0000 C   0  0  0  0  0  0  0  0  0  0  0  0
    5.7331    4.1200    0.0000 C   0  0  1  0  0  0  0  0  0  0  0  0
    5.2858   22.3600    0.0000 C   0  0  0  0  0  0  0  0  0  0  0  0
    4.8671    3.6200    0.0000 C   0  0  0  0  0  0  0  0  0  0  0  0
    8.3312    3.6200    0.0000 C   0  0  1  0  0  0  0  0  0  0  0  0
    6.5991    3.6200    0.0000 C   0  0  0  0  0  0  0  0  0  0  0  0
    8.3312    2.6200    0.0000 C   0  0  0  0  0  0  0  0  0  0  0  0
    4.8671    2.6200    0.0000 C   0  0  0  0  0  0  0  0  0  0  0  0
    4.8671    5.6200    0.0000 C   0  0  0  0  0  0  0  0  0  0  0  0
    9.1972    2.1200    0.0000 C   0  0  0  0  0  0  0  0  0  0  0  0
    6.5991    5.6200    0.0000 C   0  0  0  0  0  0  0  0  0  0  0  0
    9.1972    4.1200    0.0000 C   0  0  0  0  0  0  0  0  0  0  0  0
    4.8671    6.6200    0.0000 C   0  0  0  0  0  0  0  0  0  0  0  0
    3.5538   23.3600    0.0000 C   0  0  0  0  0  0  0  0  0  0  0  0
    4.0010    2.1200    0.0000 C   0  0  0  0  0  0  0  0  0  0  0  0
    5.7331    2.1200    0.0000 C   0  0  0  0  0  0  0  0  0  0  0  0
    6.5991    6.6200    0.0000 C   0  0  0  0  0  0  0  0  0  0  0  0
    5.7331    7.1200    0.0000 C   0  0  0  0  0  0  0  0  0  0  0  0
   10.0632    3.6200    0.0000 C   0  0  0  0  0  0  0  0  0  0  0  0
    9.1972    1.1200    0.0000 C   0  0  0  0  0  0  0  0  0  0  0  0
    4.0010    1.1200    0.0000 C   0  0  0  0  0  0  0  0  0  0  0  0
    5.7331    1.1200    0.0000 C   0  0  0  0  0  0  0  0  0  0  0  0
    2.6878   23.8600    0.0000 C   0  0  0  0  0  0  0  0  0  0  0  0
    4.8671    0.6200    0.0000 C   0  0  0  0  0  0  0  0  0  0  0  0
   10.9292    4.1200    0.0000 C   0  0  0  0  0  0  0  0  0  0  0  0
    2.5832   24.8545    0.0000 C   0  0  0  0  0  0  0  0  0  0  0  0
    4.0010    8.1200    0.0000 C   0  0  0  0  0  0  0  0  0  0  0  0
    1.6051   25.0624    0.0000 C   0  0  0  0  0  0  0  0  0  0  0  0
    1.1984   25.9760    0.0000 C   0  0  0  0  0  0  0  0  0  0  0  0
    3.1350    9.6200    0.0000 C   0  0  0  0  0  0  0  0  0  0  0  0
    2.2690   10.1200    0.0000 C   0  0  0  0  0  0  0  0  0  0  0  0
    2.2690   11.1200    0.0000 C   0  0  0  0  0  0  0  0  0  0  0  0
    1.4030    9.6200    0.0000 C   0  0  0  0  0  0  0  0  0  0  0  0
    1.4030   11.6200    0.0000 C   0  0  0  0  0  0  0  0  0  0  0  0
    0.5369   10.1200    0.0000 C   0  0  0  0  0  0  0  0  0  0  0  0
    0.5369   11.1200    0.0000 C   0  0  0  0  0  0  0  0  0  0  0  0
    8.7824   17.9792    0.0000 H   0  0  0  0  0  0  0  0  0  0  0  0
   10.1651   18.1312    0.0000 H   0  0  0  0  0  0  0  0  0  0  0  0
    9.3535   18.3037    0.0000 H   0  0  0  0  0  0  0  0  0  0  0  0
    8.2825   18.3349    0.0000 H   0  0  0  0  0  0  0  0  0  0  0  0
    7.4854   18.3349    0.0000 H   0  0  0  0  0  0  0  0  0  0  0  0
   10.8342   16.6592    0.0000 H   0  0  0  0  0  0  0  0  0  0  0  0
   10.7475   17.4843    0.0000 H   0  0  0  0  0  0  0  0  0  0  0  0
    6.4810   17.0500    0.0000 H   0  0  0  0  0  0  0  0  0  0  0  0
   10.0848   15.5912    0.0000 H   0  0  0  0  0  0  0  0  0  0  0  0
    5.6149   17.5500    0.0000 H   0  0  0  0  0  0  0  0  0  0  0  0
    7.5548   16.0500    0.0000 H   0  0  0  0  0  0  0  0  0  0  0  0
    5.2858   18.7400    0.0000 H   0  0  0  0  0  0  0  0  0  0  0  0
    4.2078   19.4426    0.0000 H   0  0  0  0  0  0  0  0  0  0  0  0
    3.8092   18.7523    0.0000 H   0  0  0  0  0  0  0  0  0  0  0  0
    5.6149   16.1700    0.0000 H   0  0  0  0  0  0  0  0  0  0  0  0
    3.7998   17.8600    0.0000 H   0  0  0  0  0  0  0  0  0  0  0  0
    4.4198   17.2400    0.0000 H   0  0  0  0  0  0  0  0  0  0  0  0
    5.0398   17.8600    0.0000 H   0  0  0  0  0  0  0  0  0  0  0  0
    5.5319   14.8600    0.0000 H   0  0  0  0  0  0  0  0  0  0  0  0
    6.1519   14.2400    0.0000 H   0  0  0  0  0  0  0  0  0  0  0  0
    6.7719   14.8600    0.0000 H   0  0  0  0  0  0  0  0  0  0  0  0
    6.6888   20.5500    0.0000 H   0  0  0  0  0  0  0  0  0  0  0  0
    6.6888   22.1700    0.0000 H   0  0  0  0  0  0  0  0  0  0  0  0
    6.2700    4.4300    0.0000 H   0  0  0  0  0  0  0  0  0  0  0  0
    5.2858   22.9800    0.0000 H   0  0  0  0  0  0  0  0  0  0  0  0
    4.6550    4.2026    0.0000 H   0  0  0  0  0  0  0  0  0  0  0  0
    4.2565    3.5123    0.0000 H   0  0  0  0  0  0  0  0  0  0  0  0
    7.7942    3.3100    0.0000 H   0  0  0  0  0  0  0  0  0  0  0  0
    7.7206    2.7277    0.0000 H   0  0  0  0  0  0  0  0  0  0  0  0
    8.1191    2.0374    0.0000 H   0  0  0  0  0  0  0  0  0  0  0  0
    7.4651    4.7400    0.0000 H   0  0  0  0  0  0  0  0  0  0  0  0
    3.0169   22.0500    0.0000 H   0  0  0  0  0  0  0  0  0  0  0  0
    9.8078    2.0123    0.0000 H   0  0  0  0  0  0  0  0  0  0  0  0
    9.4092    2.7026    0.0000 H   0  0  0  0  0  0  0  0  0  0  0  0
    7.1360    5.3100    0.0000 H   0  0  0  0  0  0  0  0  0  0  0  0
    9.1972    4.7400    0.0000 H   0  0  0  0  0  0  0  0  0  0  0  0
    3.4641    2.4300    0.0000 H   0  0  0  0  0  0  0  0  0  0  0  0
    6.2700    2.4300    0.0000 H   0  0  0  0  0  0  0  0  0  0  0  0
    7.1360    6.9300    0.0000 H   0  0  0  0  0  0  0  0  0  0  0  0
    5.7331    7.7400    0.0000 H   0  0  0  0  0  0  0  0  0  0  0  0
   10.0632    3.0000    0.0000 H   0  0  0  0  0  0  0  0  0  0  0  0
    3.4641    0.8100    0.0000 H   0  0  0  0  0  0  0  0  0  0  0  0
    6.2700    0.8100    0.0000 H   0  0  0  0  0  0  0  0  0  0  0  0
    4.8671    0.0000    0.0000 H   0  0  0  0  0  0  0  0  0  0  0  0
    3.4641    6.8100    0.0000 H   0  0  0  0  0  0  0  0  0  0  0  0
   11.2392    3.5831    0.0000 H   0  0  0  0  0  0  0  0  0  0  0  0
   11.4662    4.4300    0.0000 H   0  0  0  0  0  0  0  0  0  0  0  0
   10.6192    4.6569    0.0000 H   0  0  0  0  0  0  0  0  0  0  0  0
   10.0632    0.0000    0.0000 H   0  0  0  0  0  0  0  0  0  0  0  0
   10.6002    0.9300    0.0000 H   0  0  0  0  0  0  0  0  0  0  0  0
    3.0440   25.2694    0.0000 H   0  0  0  0  0  0  0  0  0  0  0  0
    1.7648   26.2282    0.0000 H   0  0  0  0  0  0  0  0  0  0  0  0
    0.9462   26.5424    0.0000 H   0  0  0  0  0  0  0  0  0  0  0  0
    0.6320   25.7238    0.0000 H   0  0  0  0  0  0  0  0  0  0  0  0
    3.7456    9.5123    0.0000 H   0  0  0  0  0  0  0  0  0  0  0  0
    3.3471   10.2026    0.0000 H   0  0  0  0  0  0  0  0  0  0  0  0
    2.8059   11.4300    0.0000 H   0  0  0  0  0  0  0  0  0  0  0  0
    1.4030    9.0000    0.0000 H   0  0  0  0  0  0  0  0  0  0  0  0
    1.4030   12.2400    0.0000 H   0  0  0  0  0  0  0  0  0  0  0  0
    0.0000    9.8100    0.0000 H   0  0  0  0  0  0  0  0  0  0  0  0
    0.0000   11.4300    0.0000 H   0  0  0  0  0  0  0  0  0  0  0  0
  1 25  2  0  0  0  0
  2 28  2  0  0  0  0
  3 33  2  0  0  0  0
  4 41  2  0  0  0  0
  5 44  2  0  0  0  0
  6 49  2  0  0  0  0
  7 55  2  0  0  0  0
  8 19  1  0  0  0  0
  8 63  1  0  0  0  0
  9 62  1  0  0  0  0
  9 65  1  0  0  0  0
 10 62  2  0  0  0  0
 11 23  1  0  0  0  0
 11 25  1  0  0  0  0
 11 80  1  0  0  0  0
 24 12  1  1  0  0  0
 12 28  1  0  0  0  0
 12 81  1  0  0  0  0
 13 27  1  0  0  0  0
 13 33  1  0  0  0  0
 13 34  1  0  0  0  0
 14 37  1  0  0  0  0
 14 44  1  0  0  0  0
 14 46  1  0  0  0  0
 15 35  1  0  0  0  0
 15 49  1  0  0  0  0
 15103  1  0  0  0  0
 40 16  1  6  0  0  0
 16 41  1  0  0  0  0
 16102  1  0  0  0  0
 17 48  1  0  0  0  0
 17 62  1  0  0  0  0
 17116  1  0  0  0  0
 18 55  1  0  0  0  0
 18120  1  0  0  0  0
 18121  1  0  0  0  0
 19 58  2  0  0  0  0
 20 21  1  0  0  0  0
 20 22  1  6  0  0  0
 20 25  1  0  0  0  0
 20 72  1  0  0  0  0
 21 23  1  0  0  0  0
 21 73  1  0  0  0  0
 21 74  1  0  0  0  0
 22 24  1  0  0  0  0
 22 75  1  0  0  0  0
 22 76  1  0  0  0  0
 23 77  1  0  0  0  0
 23 78  1  0  0  0  0
 24 26  1  0  0  0  0
 24 79  1  0  0  0  0
 26 30  2  0  0  0  0
 26 82  1  0  0  0  0
 27 28  1  0  0  0  0
 27 29  1  6  0  0  0
 27 83  1  0  0  0  0
 29 31  1  0  0  0  0
 29 84  1  0  0  0  0
 29 85  1  0  0  0  0
 30 32  1  0  0  0  0
 30 86  1  0  0  0  0
 31 87  1  0  0  0  0
 31 88  1  0  0  0  0
 31 89  1  0  0  0  0
 32 90  1  0  0  0  0
 32 91  1  0  0  0  0
 32 92  1  0  0  0  0
 33 35  1  0  0  0  0
 34 36  2  0  0  0  0
 34 93  1  0  0  0  0
 35 38  2  0  0  0  0
 36 38  1  0  0  0  0
 36 94  1  0  0  0  0
 37 39  1  0  0  0  0
 37 41  1  6  0  0  0
 37 95  1  0  0  0  0
 38 96  1  0  0  0  0
 39 43  1  0  0  0  0
 39 97  1  0  0  0  0
 39 98  1  0  0  0  0
 40 42  1  0  0  0  0
 40 47  1  0  0  0  0
 40 99  1  0  0  0  0
 42 45  1  0  0  0  0
 42100  1  0  0  0  0
 42101  1  0  0  0  0
 43 50  2  0  0  0  0
 43 51  1  0  0  0  0
 44 48  1  0  0  0  0
 45 55  1  0  0  0  0
 45104  1  0  0  0  0
 45105  1  0  0  0  0
 46 52  2  0  0  0  0
 46106  1  0  0  0  0
 47 54  2  0  0  0  0
 47107  1  0  0  0  0
 48 53  2  0  0  0  0
 49 58  1  0  0  0  0
 50 56  1  0  0  0  0
 50108  1  0  0  0  0
 51 57  2  0  0  0  0
 51109  1  0  0  0  0
 52 53  1  0  0  0  0
 52110  1  0  0  0  0
 53111  1  0  0  0  0
 54 60  1  0  0  0  0
 54112  1  0  0  0  0
 56 59  2  0  0  0  0
 56113  1  0  0  0  0
 57 59  1  0  0  0  0
 57114  1  0  0  0  0
 58 61  1  0  0  0  0
 59115  1  0  0  0  0
 60117  1  0  0  0  0
 60118  1  0  0  0  0
 60119  1  0  0  0  0
 61 63  2  0  0  0  0
 61122  1  0  0  0  0
 63 64  1  0  0  0  0
 64123  1  0  0  0  0
 64124  1  0  0  0  0
 64125  1  0  0  0  0
 65 66  1  0  0  0  0
 65126  1  0  0  0  0
 65127  1  0  0  0  0
 66 67  2  0  0  0  0
 66 68  1  0  0  0  0
 67 69  1  0  0  0  0
 67128  1  0  0  0  0
 68 70  2  0  0  0  0
 68129  1  0  0  0  0
 69 71  2  0  0  0  0
 69130  1  0  0  0  0
 70 71  1  0  0  0  0
 70131  1  0  0  0  0
 71132  1  0  0  0  0
M  END
> <PUBCHEM_COMPOUND_CID>
91060557

> <PUBCHEM_COMPOUND_CANONICALIZED>
1

> <PUBCHEM_CACTVS_COMPLEXITY>
1780

> <PUBCHEM_CACTVS_HBOND_ACCEPTOR>
11

> <PUBCHEM_CACTVS_HBOND_DONOR>
6

> <PUBCHEM_CACTVS_ROTATABLE_BOND>
22

> <PUBCHEM_CACTVS_SUBSKEYS>
AAADcfB//AAAAAAAAAAAAAAAAAAAAWLAAAAwYIEAAAAAAAAB0AAAHgAUAAAADSzhngYyjJPQBACpA6V2WgCCAAAmIgAomKG+bNsIZjqAtbucMYhm1hmI6ce/yKCOAAAAAAAAAAAAAAAAAAAAAAAAAAAAAA==

> <PUBCHEM_IUPAC_OPENEYE_NAME>
benzyl N-[1-[(1S)-2-[[(E,1S)-1-(3-amino-3-oxo-propyl)but-2-enyl]amino]-1-benzyl-2-oxo-ethyl]-2-oxo-3-pyridyl]carbamate;5-methyl-N-[2-oxo-1-[(1S)-1-[[(E,1S)-1-[[(3S)-2-oxopyrrolidin-3-yl]methyl]but-2-enyl]carbamoyl]propyl]-3-pyridyl]isoxazole-3-carboxamide

> <PUBCHEM_IUPAC_CAS_NAME>
N-[1-[(2S)-1-[[(E,4S)-7-amino-7-oxohept-2-en-4-yl]amino]-1-oxo-3-phenylpropan-2-yl]-2-oxo-3-pyridinyl]carbamic acid (phenylmethyl) ester;5-methyl-N-[2-oxo-1-[(2S)-1-oxo-1-[[(E,2S)-1-[(3S)-2-oxo-3-pyrrolidinyl]pent-3-en-2-yl]amino]butan-2-yl]-3-pyridinyl]-3-isoxazolecarboxamide

> <PUBCHEM_IUPAC_NAME_MARKUP>
benzyl <I>N</I>-[1-[(2<I>S</I>)-1-[[(<I>E</I>,4<I>S</I>)-7-amino-7-oxohept-2-en-4-yl]amino]-1-oxo-3-phenylpropan-2-yl]-2-oxopyridin-3-yl]carbamate;5-methyl-<I>N</I>-[2-oxo-1-[(2<I>S</I>)-1-oxo-1-[[(<I>E</I>,2<I>S</I>)-1-[(3<I>S</I>)-2-oxopyrrolidin-3-yl]pent-3-en-2-yl]amino]butan-2-yl]pyridin-3-yl]-1,2-oxazole-3-carboxamide

> <PUBCHEM_IUPAC_NAME>
benzyl N-[1-[(2S)-1-[[(E,4S)-7-amino-7-oxohept-2-en-4-yl]amino]-1-oxo-3-phenylpropan-2-yl]-2-oxopyridin-3-yl]carbamate;5-methyl-N-[2-oxo-1-[(2S)-1-oxo-1-[[(E,2S)-1-[(3S)-2-oxopyrrolidin-3-yl]pent-3-en-2-yl]amino]butan-2-yl]pyridin-3-yl]-1,2-oxazole-3-carboxamide

> <PUBCHEM_IUPAC_SYSTEMATIC_NAME>
5-methyl-N-[2-oxidanylidene-1-[(2S)-1-oxidanylidene-1-[[(E,2S)-1-[(3S)-2-oxidanylidenepyrrolidin-3-yl]pent-3-en-2-yl]amino]butan-2-yl]pyridin-3-yl]-1,2-oxazole-3-carboxamide;(phenylmethyl) N-[1-[(2S)-1-[[(E,4S)-7-azanyl-7-oxidanylidene-hept-2-en-4-yl]amino]-1-oxidanylidene-3-phenyl-propan-2-yl]-2-oxidanylidene-pyridin-3-yl]carbamate

> <PUBCHEM_IUPAC_TRADITIONAL_NAME>
N-[1-[(1S)-2-[[(E,1S)-1-(3-amino-3-keto-propyl)but-2-enyl]amino]-1-benzyl-2-keto-ethyl]-2-keto-3-pyridyl]carbamic acid benzyl ester;N-[2-keto-1-[(1S)-1-[[(E,1S)-1-[[(3S)-2-ketopyrrolidin-3-yl]methyl]but-2-enyl]carbamoyl]propyl]-3-pyridyl]-5-methyl-isoxazole-3-carboxamide

> <PUBCHEM_IUPAC_INCHI>
InChI=1S/C29H32N4O5.C23H29N5O5/c1-2-10-23(16-17-26(30)34)31-27(35)25(19-21-11-5-3-6-12-21)33-18-9-15-24(28(33)36)32-29(37)38-20-22-13-7-4-8-14-22;1-4-7-16(13-15-9-10-24-20(15)29)25-22(31)19(5-2)28-11-6-8-17(23(28)32)26-21(30)18-12-14(3)33-27-18/h2-15,18,23,25H,16-17,19-20H2,1H3,(H2,30,34)(H,31,35)(H,32,37);4,6-8,11-12,15-16,19H,5,9-10,13H2,1-3H3,(H,24,29)(H,25,31)(H,26,30)/b10-2+;7-4+/t23-,25+;15-,16+,19-/m10/s1

> <PUBCHEM_IUPAC_INCHIKEY>
VZTQCFRRCYKJCZ-TYFHLYSDSA-N

> <PUBCHEM_EXACT_MASS>
971.454139

> <PUBCHEM_MOLECULAR_FORMULA>
C52H61N9O10

> <PUBCHEM_MOLECULAR_WEIGHT>
972.1

> <PUBCHEM_OPENEYE_CAN_SMILES>
CCC(C(=O)NC(CC1CCNC1=O)C=CC)N2C=CC=C(C2=O)NC(=O)C3=NOC(=C3)C.CC=CC(CCC(=O)N)NC(=O)C(CC1=CC=CC=C1)N2C=CC=C(C2=O)NC(=O)OCC3=CC=CC=C3

> <PUBCHEM_OPENEYE_ISO_SMILES>
CC[C@@H](C(=O)N[C@@H](C[C@@H]1CCNC1=O)/C=C/C)N2C=CC=C(C2=O)NC(=O)C3=NOC(=C3)C.C/C=C/[C@H](CCC(=O)N)NC(=O)[C@H](CC1=CC=CC=C1)N2C=CC=C(C2=O)NC(=O)OCC3=CC=CC=C3

> <PUBCHEM_CACTVS_TPSA>
265

> <PUBCHEM_MONOISOTOPIC_WEIGHT>
971.454139

> <PUBCHEM_TOTAL_CHARGE>
0

> <PUBCHEM_HEAVY_ATOM_COUNT>
71

> <PUBCHEM_ATOM_DEF_STEREO_COUNT>
5

> <PUBCHEM_ATOM_UDEF_STEREO_COUNT>
0

> <PUBCHEM_BOND_DEF_STEREO_COUNT>
2

> <PUBCHEM_BOND_UDEF_STEREO_COUNT>
0

> <PUBCHEM_ISOTOPIC_ATOM_COUNT>
0

> <PUBCHEM_COMPONENT_COUNT>
2

> <PUBCHEM_CACTVS_TAUTO_COUNT>
-1

> <PUBCHEM_COORDINATE_TYPE>
1
5
255

> <PUBCHEM_BONDANNOTATIONS>
24  12  5
13  33  8
13  34  8
14  44  8
14  46  8
40  16  6
19  58  8
20  22  6
27  29  6
33  35  8
34  36  8
35  38  8
36  38  8
37  41  6
43  50  8
43  51  8
44  48  8
46  52  8
48  53  8
50  56  8
51  57  8
52  53  8
56  59  8
57  59  8
58  61  8
61  63  8
66  67  8
66  68  8
67  69  8
68  70  8
69  71  8
70  71  8
8  19  8
8  63  8

$$$$
91069567
  -OEChem-02212016592D

 78 81  0     1  0  0  0  0  0999 V2000
   11.6323    0.0769    0.0000 O   0  0  0  0  0  0  0  0  0  0  0  0
    7.0468   -2.3080    0.0000 O   0  0  0  0  0  0  0  0  0  0  0  0
   10.5109   -4.3080    0.0000 O   0  0  0  0  0  0  0  0  0  0  0  0
    4.4487    0.1920    0.0000 O   0  0  0  0  0  0  0  0  0  0  0  0
    8.7788   -4.3080    0.0000 O   0  0  0  0  0  0  0  0  0  0  0  0
    5.3147    3.6920    0.0000 O   0  0  0  0  0  0  0  0  0  0  0  0
    2.0000    4.0284    0.0000 O   0  0  0  0  0  0  0  0  0  0  0  0
   12.0936   -1.6444    0.0000 N   0  0  0  0  0  0  0  0  0  0  0  0
    7.9128   -0.8080    0.0000 N   0  0  0  0  0  0  0  0  0  0  0  0
    6.1808    0.1920    0.0000 N   0  0  0  0  0  0  0  0  0  0  0  0
    4.4487    2.1920    0.0000 N   0  0  0  0  0  0  0  0  0  0  0  0
    2.6691    3.2853    0.0000 N   0  0  0  0  0  0  0  0  0  0  0  0
   10.5109   -1.3080    0.0000 C   0  0  2  0  0  0  0  0  0  0  0  0
    9.6448   -0.8080    0.0000 C   0  0  0  0  0  0  0  0  0  0  0  0
   10.6154   -2.3025    0.0000 C   0  0  0  0  0  0  0  0  0  0  0  0
    8.7788   -1.3080    0.0000 C   0  0  1  0  0  0  0  0  0  0  0  0
   11.5936   -2.5104    0.0000 C   0  0  0  0  0  0  0  0  0  0  0  0
   11.4244   -0.9013    0.0000 C   0  0  0  0  0  0  0  0  0  0  0  0
    6.1808   -0.8080    0.0000 C   0  0  2  0  0  0  0  0  0  0  0  0
    8.7788   -2.3080    0.0000 C   0  0  0  0  0  0  0  0  0  0  0  0
    7.0468   -1.3080    0.0000 C   0  0  0  0  0  0  0  0  0  0  0  0
    5.3147   -1.3080    0.0000 C   0  0  0  0  0  0  0  0  0  0  0  0
    9.6448   -2.8080    0.0000 C   0  0  0  0  0  0  0  0  0  0  0  0
    5.3147   -2.3080    0.0000 C   0  0  0  0  0  0  0  0  0  0  0  0
    5.3147    0.6920    0.0000 C   0  0  0  0  0  0  0  0  0  0  0  0
    7.0468    0.6920    0.0000 C   0  0  0  0  0  0  0  0  0  0  0  0
    5.3147    1.6920    0.0000 C   0  0  0  0  0  0  0  0  0  0  0  0
    4.4487   -2.8080    0.0000 C   0  0  0  0  0  0  0  0  0  0  0  0
    6.1808   -2.8080    0.0000 C   0  0  0  0  0  0  0  0  0  0  0  0
    9.6448   -3.8080    0.0000 C   0  0  0  0  0  0  0  0  0  0  0  0
    7.0468    1.6920    0.0000 C   0  0  0  0  0  0  0  0  0  0  0  0
    6.1808    2.1920    0.0000 C   0  0  0  0  0  0  0  0  0  0  0  0
    4.4487   -3.8080    0.0000 C   0  0  0  0  0  0  0  0  0  0  0  0
    6.1808   -3.8080    0.0000 C   0  0  0  0  0  0  0  0  0  0  0  0
    5.3147   -4.3080    0.0000 C   0  0  0  0  0  0  0  0  0  0  0  0
   10.5109   -5.3080    0.0000 C   0  0  0  0  0  0  0  0  0  0  0  0
    4.4487    3.1920    0.0000 C   0  0  0  0  0  0  0  0  0  0  0  0
   11.3769   -5.8080    0.0000 C   0  0  0  0  0  0  0  0  0  0  0  0
    9.6448   -5.8080    0.0000 C   0  0  0  0  0  0  0  0  0  0  0  0
    3.5827    3.6920    0.0000 C   0  0  0  0  0  0  0  0  0  0  0  0
    3.4782    4.6865    0.0000 C   0  0  0  0  0  0  0  0  0  0  0  0
    2.5000    4.8944    0.0000 C   0  0  0  0  0  0  0  0  0  0  0  0
    2.0933    5.8080    0.0000 C   0  0  0  0  0  0  0  0  0  0  0  0
   10.5433   -0.6888    0.0000 H   0  0  0  0  0  0  0  0  0  0  0  0
   10.0434   -0.3330    0.0000 H   0  0  0  0  0  0  0  0  0  0  0  0
    9.2463   -0.3330    0.0000 H   0  0  0  0  0  0  0  0  0  0  0  0
    9.9954   -2.3025    0.0000 H   0  0  0  0  0  0  0  0  0  0  0  0
   10.5506   -2.9191    0.0000 H   0  0  0  0  0  0  0  0  0  0  0  0
    8.2419   -1.6180    0.0000 H   0  0  0  0  0  0  0  0  0  0  0  0
   11.4020   -3.1001    0.0000 H   0  0  0  0  0  0  0  0  0  0  0  0
   12.1600   -2.7626    0.0000 H   0  0  0  0  0  0  0  0  0  0  0  0
   12.7102   -1.5796    0.0000 H   0  0  0  0  0  0  0  0  0  0  0  0
    7.9128   -0.1880    0.0000 H   0  0  0  0  0  0  0  0  0  0  0  0
    6.7177   -0.4980    0.0000 H   0  0  0  0  0  0  0  0  0  0  0  0
    8.2419   -2.6180    0.0000 H   0  0  0  0  0  0  0  0  0  0  0  0
    5.1027   -0.7254    0.0000 H   0  0  0  0  0  0  0  0  0  0  0  0
    4.7042   -1.4156    0.0000 H   0  0  0  0  0  0  0  0  0  0  0  0
   10.1818   -2.4980    0.0000 H   0  0  0  0  0  0  0  0  0  0  0  0
    7.5837    0.3820    0.0000 H   0  0  0  0  0  0  0  0  0  0  0  0
    3.9118   -2.4980    0.0000 H   0  0  0  0  0  0  0  0  0  0  0  0
    6.7177   -2.4980    0.0000 H   0  0  0  0  0  0  0  0  0  0  0  0
    7.5837    2.0020    0.0000 H   0  0  0  0  0  0  0  0  0  0  0  0
    6.1808    2.8120    0.0000 H   0  0  0  0  0  0  0  0  0  0  0  0
    3.9118   -4.1180    0.0000 H   0  0  0  0  0  0  0  0  0  0  0  0
    6.7177   -4.1180    0.0000 H   0  0  0  0  0  0  0  0  0  0  0  0
    3.9118    1.8820    0.0000 H   0  0  0  0  0  0  0  0  0  0  0  0
    5.3147   -4.9280    0.0000 H   0  0  0  0  0  0  0  0  0  0  0  0
   11.0478   -4.9980    0.0000 H   0  0  0  0  0  0  0  0  0  0  0  0
   11.0669   -6.3449    0.0000 H   0  0  0  0  0  0  0  0  0  0  0  0
   11.9138   -6.1180    0.0000 H   0  0  0  0  0  0  0  0  0  0  0  0
   11.6869   -5.2710    0.0000 H   0  0  0  0  0  0  0  0  0  0  0  0
    9.3348   -5.2710    0.0000 H   0  0  0  0  0  0  0  0  0  0  0  0
    9.1079   -6.1180    0.0000 H   0  0  0  0  0  0  0  0  0  0  0  0
    9.9548   -6.3449    0.0000 H   0  0  0  0  0  0  0  0  0  0  0  0
    3.9389    5.1014    0.0000 H   0  0  0  0  0  0  0  0  0  0  0  0
    2.6597    6.0602    0.0000 H   0  0  0  0  0  0  0  0  0  0  0  0
    1.8411    6.3744    0.0000 H   0  0  0  0  0  0  0  0  0  0  0  0
    1.5269    5.5558    0.0000 H   0  0  0  0  0  0  0  0  0  0  0  0
  1 18  2  0  0  0  0
  2 21  2  0  0  0  0
  3 30  1  0  0  0  0
  3 36  1  0  0  0  0
  4 25  2  0  0  0  0
  5 30  2  0  0  0  0
  6 37  2  0  0  0  0
  7 12  1  0  0  0  0
  7 42  1  0  0  0  0
  8 17  1  0  0  0  0
  8 18  1  0  0  0  0
  8 52  1  0  0  0  0
 16  9  1  1  0  0  0
  9 21  1  0  0  0  0
  9 53  1  0  0  0  0
 10 19  1  0  0  0  0
 10 25  1  0  0  0  0
 10 26  1  0  0  0  0
 11 27  1  0  0  0  0
 11 37  1  0  0  0  0
 11 66  1  0  0  0  0
 12 40  2  0  0  0  0
 13 14  1  1  0  0  0
 13 15  1  0  0  0  0
 13 18  1  0  0  0  0
 13 44  1  0  0  0  0
 14 16  1  0  0  0  0
 14 45  1  0  0  0  0
 14 46  1  0  0  0  0
 15 17  1  0  0  0  0
 15 47  1  0  0  0  0
 15 48  1  0  0  0  0
 16 20  1  0  0  0  0
 16 49  1  0  0  0  0
 17 50  1  0  0  0  0
 17 51  1  0  0  0  0
 19 21  1  6  0  0  0
 19 22  1  0  0  0  0
 19 54  1  0  0  0  0
 20 23  2  3  0  0  0
 20 55  1  0  0  0  0
 22 24  1  0  0  0  0
 22 56  1  0  0  0  0
 22 57  1  0  0  0  0
 23 30  1  0  0  0  0
 23 58  1  0  0  0  0
 24 28  2  0  0  0  0
 24 29  1  0  0  0  0
 25 27  1  0  0  0  0
 26 31  2  0  0  0  0
 26 59  1  0  0  0  0
 27 32  2  0  0  0  0
 28 33  1  0  0  0  0
 28 60  1  0  0  0  0
 29 34  2  0  0  0  0
 29 61  1  0  0  0  0
 31 32  1  0  0  0  0
 31 62  1  0  0  0  0
 32 63  1  0  0  0  0
 33 35  2  0  0  0  0
 33 64  1  0  0  0  0
 34 35  1  0  0  0  0
 34 65  1  0  0  0  0
 35 67  1  0  0  0  0
 36 38  1  0  0  0  0
 36 39  1  0  0  0  0
 36 68  1  0  0  0  0
 37 40  1  0  0  0  0
 38 69  1  0  0  0  0
 38 70  1  0  0  0  0
 38 71  1  0  0  0  0
 39 72  1  0  0  0  0
 39 73  1  0  0  0  0
 39 74  1  0  0  0  0
 40 41  1  0  0  0  0
 41 42  2  0  0  0  0
 41 75  1  0  0  0  0
 42 43  1  0  0  0  0
 43 76  1  0  0  0  0
 43 77  1  0  0  0  0
 43 78  1  0  0  0  0
M  END
> <PUBCHEM_COMPOUND_CID>
91069567

> <PUBCHEM_COMPOUND_CANONICALIZED>
1

> <PUBCHEM_CACTVS_COMPLEXITY>
1140

> <PUBCHEM_CACTVS_HBOND_ACCEPTOR>
8

> <PUBCHEM_CACTVS_HBOND_DONOR>
3

> <PUBCHEM_CACTVS_ROTATABLE_BOND>
13

> <PUBCHEM_CACTVS_SUBSKEYS>
AAADcfB7uAAAAAAAAAAAAAAAAAAAAWLAAAAwQAAAAAAAAAABwAAAHgAUAAAADTzhngYyjJPQBACpA6X2WgCCAAAmIgAomKG+bNoIZjqAtbOWMYhmlhiI6cc/iICOAAAAAAAAAAAAAAAAAAAAAAAAAAAAAA==

> <PUBCHEM_IUPAC_OPENEYE_NAME>
isopropyl (4S)-4-[[(2S)-2-[3-[(5-methylisoxazole-3-carbonyl)amino]-2-oxo-1-pyridyl]-3-phenyl-propanoyl]amino]-5-[(3S)-2-oxopyrrolidin-3-yl]pent-2-enoate

> <PUBCHEM_IUPAC_CAS_NAME>
(4S)-4-[[(2S)-2-[3-[[(5-methyl-3-isoxazolyl)-oxomethyl]amino]-2-oxo-1-pyridinyl]-1-oxo-3-phenylpropyl]amino]-5-[(3S)-2-oxo-3-pyrrolidinyl]-2-pentenoic acid propan-2-yl ester

> <PUBCHEM_IUPAC_NAME_MARKUP>
propan-2-yl (4<I>S</I>)-4-[[(2<I>S</I>)-2-[3-[(5-methyl-1,2-oxazole-3-carbonyl)amino]-2-oxopyridin-1-yl]-3-phenylpropanoyl]amino]-5-[(3<I>S</I>)-2-oxopyrrolidin-3-yl]pent-2-enoate

> <PUBCHEM_IUPAC_NAME>
propan-2-yl (4S)-4-[[(2S)-2-[3-[(5-methyl-1,2-oxazole-3-carbonyl)amino]-2-oxopyridin-1-yl]-3-phenylpropanoyl]amino]-5-[(3S)-2-oxopyrrolidin-3-yl]pent-2-enoate

> <PUBCHEM_IUPAC_SYSTEMATIC_NAME>
propan-2-yl (4S)-4-[[(2S)-2-[3-[(5-methyl-1,2-oxazol-3-yl)carbonylamino]-2-oxidanylidene-pyridin-1-yl]-3-phenyl-propanoyl]amino]-5-[(3S)-2-oxidanylidenepyrrolidin-3-yl]pent-2-enoate

> <PUBCHEM_IUPAC_TRADITIONAL_NAME>
(4S)-4-[[(2S)-2-[2-keto-3-[(5-methylisoxazole-3-carbonyl)amino]-1-pyridyl]-3-phenyl-propanoyl]amino]-5-[(3S)-2-ketopyrrolidin-3-yl]pent-2-enoic acid isopropyl ester

> <PUBCHEM_IUPAC_INCHI>
InChI=1S/C31H35N5O7/c1-19(2)42-27(37)12-11-23(18-22-13-14-32-28(22)38)33-30(40)26(17-21-8-5-4-6-9-21)36-15-7-10-24(31(36)41)34-29(39)25-16-20(3)43-35-25/h4-12,15-16,19,22-23,26H,13-14,17-18H2,1-3H3,(H,32,38)(H,33,40)(H,34,39)/t22-,23+,26-/m0/s1

> <PUBCHEM_IUPAC_INCHIKEY>
GDKSFXZDBNFUIQ-ZEVJAHDQSA-N

> <PUBCHEM_XLOGP3_AA>
2.7

> <PUBCHEM_EXACT_MASS>
589.253648

> <PUBCHEM_MOLECULAR_FORMULA>
C31H35N5O7

> <PUBCHEM_MOLECULAR_WEIGHT>
589.6

> <PUBCHEM_OPENEYE_CAN_SMILES>
CC1=CC(=NO1)C(=O)NC2=CC=CN(C2=O)C(CC3=CC=CC=C3)C(=O)NC(CC4CCNC4=O)C=CC(=O)OC(C)C

> <PUBCHEM_OPENEYE_ISO_SMILES>
CC1=CC(=NO1)C(=O)NC2=CC=CN(C2=O)[C@@H](CC3=CC=CC=C3)C(=O)N[C@@H](C[C@@H]4CCNC4=O)C=CC(=O)OC(C)C

> <PUBCHEM_CACTVS_TPSA>
160

> <PUBCHEM_MONOISOTOPIC_WEIGHT>
589.253648

> <PUBCHEM_TOTAL_CHARGE>
0

> <PUBCHEM_HEAVY_ATOM_COUNT>
43

> <PUBCHEM_ATOM_DEF_STEREO_COUNT>
3

> <PUBCHEM_ATOM_UDEF_STEREO_COUNT>
0

> <PUBCHEM_BOND_DEF_STEREO_COUNT>
0

> <PUBCHEM_BOND_UDEF_STEREO_COUNT>
1

> <PUBCHEM_ISOTOPIC_ATOM_COUNT>
0

> <PUBCHEM_COMPONENT_COUNT>
1

> <PUBCHEM_CACTVS_TAUTO_COUNT>
-1

> <PUBCHEM_COORDINATE_TYPE>
1
5
255

> <PUBCHEM_BONDANNOTATIONS>
10  25  8
10  26  8
12  40  8
13  14  5
19  21  6
20  23  1
24  28  8
24  29  8
25  27  8
26  31  8
27  32  8
28  33  8
29  34  8
31  32  8
33  35  8
34  35  8
40  41  8
41  42  8
7  12  8
7  42  8
16  9  5

$$$$
91074287
  -OEChem-02212016592D

 81 83  0     1  0  0  0  0  0999 V2000
    6.3092   -4.8512    0.0000 F   0  0  0  0  0  0  0  0  0  0  0  0
   12.6269    0.5337    0.0000 O   0  0  0  0  0  0  0  0  0  0  0  0
    8.0413   -1.8512    0.0000 O   0  0  0  0  0  0  0  0  0  0  0  0
    5.4432    0.6488    0.0000 O   0  0  0  0  0  0  0  0  0  0  0  0
   11.5054   -3.8512    0.0000 O   0  0  0  0  0  0  0  0  0  0  0  0
    9.7734   -3.8512    0.0000 O   0  0  0  0  0  0  0  0  0  0  0  0
    6.3092    4.1488    0.0000 O   0  0  0  0  0  0  0  0  0  0  0  0
    3.4945    5.3512    0.0000 O   0  0  0  0  0  0  0  0  0  0  0  0
   13.0881   -1.1876    0.0000 N   0  0  0  0  0  0  0  0  0  0  0  0
    8.9073   -0.3512    0.0000 N   0  0  0  0  0  0  0  0  0  0  0  0
    7.1753    0.6488    0.0000 N   0  0  0  0  0  0  0  0  0  0  0  0
    5.4432    2.6488    0.0000 N   0  0  0  0  0  0  0  0  0  0  0  0
    4.4727    5.1433    0.0000 N   0  0  0  0  0  0  0  0  0  0  0  0
   11.5054   -0.8512    0.0000 C   0  0  3  0  0  0  0  0  0  0  0  0
   10.6394   -0.3512    0.0000 C   0  0  0  0  0  0  0  0  0  0  0  0
   11.6099   -1.8457    0.0000 C   0  0  0  0  0  0  0  0  0  0  0  0
    9.7734   -0.8512    0.0000 C   0  0  1  0  0  0  0  0  0  0  0  0
   12.5881   -2.0537    0.0000 C   0  0  0  0  0  0  0  0  0  0  0  0
   12.4189   -0.4445    0.0000 C   0  0  0  0  0  0  0  0  0  0  0  0
    7.1753   -0.3512    0.0000 C   0  0  2  0  0  0  0  0  0  0  0  0
    9.7734   -1.8512    0.0000 C   0  0  0  0  0  0  0  0  0  0  0  0
    8.0413   -0.8512    0.0000 C   0  0  0  0  0  0  0  0  0  0  0  0
    6.3092    2.1488    0.0000 C   0  0  1  0  0  0  0  0  0  0  0  0
    6.3092   -0.8512    0.0000 C   0  0  0  0  0  0  0  0  0  0  0  0
    7.1753    2.6488    0.0000 C   0  0  0  0  0  0  0  0  0  0  0  0
    6.3092    1.1488    0.0000 C   0  0  0  0  0  0  0  0  0  0  0  0
   10.6394   -2.3512    0.0000 C   0  0  0  0  0  0  0  0  0  0  0  0
    6.3092   -1.8512    0.0000 C   0  0  0  0  0  0  0  0  0  0  0  0
    7.1753    3.6488    0.0000 C   0  0  0  0  0  0  0  0  0  0  0  0
    8.0413    2.1488    0.0000 C   0  0  0  0  0  0  0  0  0  0  0  0
    7.1753   -2.3512    0.0000 C   0  0  0  0  0  0  0  0  0  0  0  0
    5.4432   -2.3512    0.0000 C   0  0  0  0  0  0  0  0  0  0  0  0
   10.6394   -3.3512    0.0000 C   0  0  0  0  0  0  0  0  0  0  0  0
    5.4432    3.6488    0.0000 C   0  0  0  0  0  0  0  0  0  0  0  0
    7.1753   -3.3512    0.0000 C   0  0  0  0  0  0  0  0  0  0  0  0
    5.4432   -3.3512    0.0000 C   0  0  0  0  0  0  0  0  0  0  0  0
    4.5772    4.1488    0.0000 C   0  0  0  0  0  0  0  0  0  0  0  0
    6.3092   -3.8512    0.0000 C   0  0  0  0  0  0  0  0  0  0  0  0
    3.6636    3.7420    0.0000 C   0  0  0  0  0  0  0  0  0  0  0  0
   11.5054   -4.8512    0.0000 C   0  0  0  0  0  0  0  0  0  0  0  0
    2.9945    4.4852    0.0000 C   0  0  0  0  0  0  0  0  0  0  0  0
   12.3714   -5.3512    0.0000 C   0  0  0  0  0  0  0  0  0  0  0  0
    2.0000    4.3807    0.0000 C   0  0  0  0  0  0  0  0  0  0  0  0
   11.5378   -0.2321    0.0000 H   0  0  0  0  0  0  0  0  0  0  0  0
   11.0379    0.1237    0.0000 H   0  0  0  0  0  0  0  0  0  0  0  0
   10.2408    0.1237    0.0000 H   0  0  0  0  0  0  0  0  0  0  0  0
   10.9899   -1.8457    0.0000 H   0  0  0  0  0  0  0  0  0  0  0  0
   11.5451   -2.4623    0.0000 H   0  0  0  0  0  0  0  0  0  0  0  0
    9.7734   -0.2312    0.0000 H   0  0  0  0  0  0  0  0  0  0  0  0
   12.3965   -2.6433    0.0000 H   0  0  0  0  0  0  0  0  0  0  0  0
   13.1545   -2.3058    0.0000 H   0  0  0  0  0  0  0  0  0  0  0  0
   13.7047   -1.1228    0.0000 H   0  0  0  0  0  0  0  0  0  0  0  0
    8.9073    0.2688    0.0000 H   0  0  0  0  0  0  0  0  0  0  0  0
    7.7122   -0.0412    0.0000 H   0  0  0  0  0  0  0  0  0  0  0  0
    9.2364   -2.1612    0.0000 H   0  0  0  0  0  0  0  0  0  0  0  0
    6.3092    2.7688    0.0000 H   0  0  0  0  0  0  0  0  0  0  0  0
    6.0972   -0.2686    0.0000 H   0  0  0  0  0  0  0  0  0  0  0  0
    5.6987   -0.9589    0.0000 H   0  0  0  0  0  0  0  0  0  0  0  0
    7.1753    2.0288    0.0000 H   0  0  0  0  0  0  0  0  0  0  0  0
    7.7122    0.9588    0.0000 H   0  0  0  0  0  0  0  0  0  0  0  0
   11.1763   -2.0412    0.0000 H   0  0  0  0  0  0  0  0  0  0  0  0
    7.7953    3.6488    0.0000 H   0  0  0  0  0  0  0  0  0  0  0  0
    7.1753    4.2688    0.0000 H   0  0  0  0  0  0  0  0  0  0  0  0
    6.5553    3.6488    0.0000 H   0  0  0  0  0  0  0  0  0  0  0  0
    7.7313    1.6118    0.0000 H   0  0  0  0  0  0  0  0  0  0  0  0
    8.5782    1.8388    0.0000 H   0  0  0  0  0  0  0  0  0  0  0  0
    8.3513    2.6857    0.0000 H   0  0  0  0  0  0  0  0  0  0  0  0
    4.9063    2.3388    0.0000 H   0  0  0  0  0  0  0  0  0  0  0  0
    7.7122   -2.0412    0.0000 H   0  0  0  0  0  0  0  0  0  0  0  0
    4.9063   -2.0412    0.0000 H   0  0  0  0  0  0  0  0  0  0  0  0
    7.7122   -3.6612    0.0000 H   0  0  0  0  0  0  0  0  0  0  0  0
    4.9063   -3.6612    0.0000 H   0  0  0  0  0  0  0  0  0  0  0  0
    3.5348    3.1356    0.0000 H   0  0  0  0  0  0  0  0  0  0  0  0
   10.8948   -4.7436    0.0000 H   0  0  0  0  0  0  0  0  0  0  0  0
   11.2933   -5.4338    0.0000 H   0  0  0  0  0  0  0  0  0  0  0  0
   12.0614   -5.8882    0.0000 H   0  0  0  0  0  0  0  0  0  0  0  0
   12.9084   -5.6612    0.0000 H   0  0  0  0  0  0  0  0  0  0  0  0
   12.6814   -4.8143    0.0000 H   0  0  0  0  0  0  0  0  0  0  0  0
    1.9352    4.9973    0.0000 H   0  0  0  0  0  0  0  0  0  0  0  0
    1.3834    4.3159    0.0000 H   0  0  0  0  0  0  0  0  0  0  0  0
    2.0648    3.7641    0.0000 H   0  0  0  0  0  0  0  0  0  0  0  0
  1 38  1  0  0  0  0
  2 19  2  0  0  0  0
  3 22  2  0  0  0  0
  4 26  2  0  0  0  0
  5 33  1  0  0  0  0
  5 40  1  0  0  0  0
  6 33  2  0  0  0  0
  7 34  2  0  0  0  0
  8 13  1  0  0  0  0
  8 41  1  0  0  0  0
  9 18  1  0  0  0  0
  9 19  1  0  0  0  0
  9 52  1  0  0  0  0
 17 10  1  1  0  0  0
 10 22  1  0  0  0  0
 10 53  1  0  0  0  0
 20 11  1  6  0  0  0
 11 26  1  0  0  0  0
 11 60  1  0  0  0  0
 23 12  1  1  0  0  0
 12 34  1  0  0  0  0
 12 68  1  0  0  0  0
 13 37  2  0  0  0  0
 14 15  1  0  0  0  0
 14 16  1  0  0  0  0
 14 19  1  0  0  0  0
 14 44  1  0  0  0  0
 15 17  1  0  0  0  0
 15 45  1  0  0  0  0
 15 46  1  0  0  0  0
 16 18  1  0  0  0  0
 16 47  1  0  0  0  0
 16 48  1  0  0  0  0
 17 21  1  0  0  0  0
 17 49  1  0  0  0  0
 18 50  1  0  0  0  0
 18 51  1  0  0  0  0
 20 22  1  0  0  0  0
 20 24  1  0  0  0  0
 20 54  1  0  0  0  0
 21 27  2  3  0  0  0
 21 55  1  0  0  0  0
 23 25  1  0  0  0  0
 23 26  1  0  0  0  0
 23 56  1  0  0  0  0
 24 28  1  0  0  0  0
 24 57  1  0  0  0  0
 24 58  1  0  0  0  0
 25 29  1  0  0  0  0
 25 30  1  0  0  0  0
 25 59  1  0  0  0  0
 27 33  1  0  0  0  0
 27 61  1  0  0  0  0
 28 31  2  0  0  0  0
 28 32  1  0  0  0  0
 29 62  1  0  0  0  0
 29 63  1  0  0  0  0
 29 64  1  0  0  0  0
 30 65  1  0  0  0  0
 30 66  1  0  0  0  0
 30 67  1  0  0  0  0
 31 35  1  0  0  0  0
 31 69  1  0  0  0  0
 32 36  2  0  0  0  0
 32 70  1  0  0  0  0
 34 37  1  0  0  0  0
 35 38  2  0  0  0  0
 35 71  1  0  0  0  0
 36 38  1  0  0  0  0
 36 72  1  0  0  0  0
 37 39  1  0  0  0  0
 39 41  2  0  0  0  0
 39 73  1  0  0  0  0
 40 42  1  0  0  0  0
 40 74  1  0  0  0  0
 40 75  1  0  0  0  0
 41 43  1  0  0  0  0
 42 76  1  0  0  0  0
 42 77  1  0  0  0  0
 42 78  1  0  0  0  0
 43 79  1  0  0  0  0
 43 80  1  0  0  0  0
 43 81  1  0  0  0  0
M  END
> <PUBCHEM_COMPOUND_CID>
91074287

> <PUBCHEM_COMPOUND_CANONICALIZED>
1

> <PUBCHEM_CACTVS_COMPLEXITY>
1020

> <PUBCHEM_CACTVS_HBOND_ACCEPTOR>
9

> <PUBCHEM_CACTVS_HBOND_DONOR>
4

> <PUBCHEM_CACTVS_ROTATABLE_BOND>
15

> <PUBCHEM_CACTVS_SUBSKEYS>
AAADcfB7uQAAAAAAAAAAAAAAAAAAAWLAAAAwAAAAAAAAAAABwAAAHwAUAAAADSzhng4yjJLQBACpA6XyWgCCAAAmIgAomKG+bNoIZjqAtbOWMYhmlhiI6cc/iICOAAAAAAAAAAAAAAAAAAAAAAAAAAAAAA==

> <PUBCHEM_IUPAC_OPENEYE_NAME>
ethyl (4S)-4-[[(2S)-3-(4-fluorophenyl)-2-[[(2S)-3-methyl-2-[(5-methylisoxazole-3-carbonyl)amino]butanoyl]amino]propanoyl]amino]-5-(2-oxopyrrolidin-3-yl)pent-2-enoate

> <PUBCHEM_IUPAC_CAS_NAME>
(4S)-4-[[(2S)-3-(4-fluorophenyl)-2-[[(2S)-3-methyl-2-[[(5-methyl-3-isoxazolyl)-oxomethyl]amino]-1-oxobutyl]amino]-1-oxopropyl]amino]-5-(2-oxo-3-pyrrolidinyl)-2-pentenoic acid ethyl ester

> <PUBCHEM_IUPAC_NAME_MARKUP>
ethyl (4<I>S</I>)-4-[[(2<I>S</I>)-3-(4-fluorophenyl)-2-[[(2<I>S</I>)-3-methyl-2-[(5-methyl-1,2-oxazole-3-carbonyl)amino]butanoyl]amino]propanoyl]amino]-5-(2-oxopyrrolidin-3-yl)pent-2-enoate

> <PUBCHEM_IUPAC_NAME>
ethyl (4S)-4-[[(2S)-3-(4-fluorophenyl)-2-[[(2S)-3-methyl-2-[(5-methyl-1,2-oxazole-3-carbonyl)amino]butanoyl]amino]propanoyl]amino]-5-(2-oxopyrrolidin-3-yl)pent-2-enoate

> <PUBCHEM_IUPAC_SYSTEMATIC_NAME>
ethyl (4S)-4-[[(2S)-3-(4-fluorophenyl)-2-[[(2S)-3-methyl-2-[(5-methyl-1,2-oxazol-3-yl)carbonylamino]butanoyl]amino]propanoyl]amino]-5-(2-oxidanylidenepyrrolidin-3-yl)pent-2-enoate

> <PUBCHEM_IUPAC_TRADITIONAL_NAME>
(4S)-4-[[(2S)-3-(4-fluorophenyl)-2-[[(2S)-3-methyl-2-[(5-methylisoxazole-3-carbonyl)amino]butanoyl]amino]propanoyl]amino]-5-(2-ketopyrrolidin-3-yl)pent-2-enoic acid ethyl ester

> <PUBCHEM_IUPAC_INCHI>
InChI=1S/C30H38FN5O7/c1-5-42-25(37)11-10-22(16-20-12-13-32-27(20)38)33-28(39)23(15-19-6-8-21(31)9-7-19)34-30(41)26(17(2)3)35-29(40)24-14-18(4)43-36-24/h6-11,14,17,20,22-23,26H,5,12-13,15-16H2,1-4H3,(H,32,38)(H,33,39)(H,34,41)(H,35,40)/t20?,22-,23+,26+/m1/s1

> <PUBCHEM_IUPAC_INCHIKEY>
JSJRYDPMCHPLOL-IMVJZJNFSA-N

> <PUBCHEM_XLOGP3_AA>
2.8

> <PUBCHEM_EXACT_MASS>
599.275527

> <PUBCHEM_MOLECULAR_FORMULA>
C30H38FN5O7

> <PUBCHEM_MOLECULAR_WEIGHT>
599.6

> <PUBCHEM_OPENEYE_CAN_SMILES>
CCOC(=O)C=CC(CC1CCNC1=O)NC(=O)C(CC2=CC=C(C=C2)F)NC(=O)C(C(C)C)NC(=O)C3=NOC(=C3)C

> <PUBCHEM_OPENEYE_ISO_SMILES>
CCOC(=O)C=C[C@H](CC1CCNC1=O)NC(=O)[C@H](CC2=CC=C(C=C2)F)NC(=O)[C@H](C(C)C)NC(=O)C3=NOC(=C3)C

> <PUBCHEM_CACTVS_TPSA>
169

> <PUBCHEM_MONOISOTOPIC_WEIGHT>
599.275527

> <PUBCHEM_TOTAL_CHARGE>
0

> <PUBCHEM_HEAVY_ATOM_COUNT>
43

> <PUBCHEM_ATOM_DEF_STEREO_COUNT>
3

> <PUBCHEM_ATOM_UDEF_STEREO_COUNT>
1

> <PUBCHEM_BOND_DEF_STEREO_COUNT>
0

> <PUBCHEM_BOND_UDEF_STEREO_COUNT>
1

> <PUBCHEM_ISOTOPIC_ATOM_COUNT>
0

> <PUBCHEM_COMPONENT_COUNT>
1

> <PUBCHEM_CACTVS_TAUTO_COUNT>
-1

> <PUBCHEM_COORDINATE_TYPE>
1
5
255

> <PUBCHEM_BONDANNOTATIONS>
17  10  5
20  11  6
23  12  5
13  37  8
14  15  3
21  27  1
28  31  8
28  32  8
31  35  8
32  36  8
35  38  8
36  38  8
37  39  8
39  41  8
8  13  8
8  41  8

$$$$
91085238
  -OEChem-02212016592D

 80 81  0     1  0  0  0  0  0999 V2000
    5.3147    0.9420    0.0000 O   0  0  0  0  0  0  0  0  0  0  0  0
    7.9128   -1.5580    0.0000 O   0  0  0  0  0  0  0  0  0  0  0  0
    4.4487    1.4420    0.0000 O   0  0  0  0  0  0  0  0  0  0  0  0
    2.0000    3.2784    0.0000 O   0  0  0  0  0  0  0  0  0  0  0  0
   12.2429    0.9420    0.0000 O   0  0  0  0  0  0  0  0  0  0  0  0
   11.3769   -3.5580    0.0000 O   0  0  0  0  0  0  0  0  0  0  0  0
    9.6448   -3.5580    0.0000 O   0  0  0  0  0  0  0  0  0  0  0  0
    7.0468    0.9420    0.0000 N   0  0  0  0  0  0  0  0  0  0  0  0
    5.3147    2.9420    0.0000 N   0  0  0  0  0  0  0  0  0  0  0  0
    8.7788   -0.0580    0.0000 N   0  0  0  0  0  0  0  0  0  0  0  0
    2.6691    2.5353    0.0000 N   0  0  0  0  0  0  0  0  0  0  0  0
   13.1090   -0.5580    0.0000 N   0  0  0  0  0  0  0  0  0  0  0  0
    7.0468    2.9420    0.0000 C   0  0  0  0  0  0  0  0  0  0  0  0
    6.1808    2.4420    0.0000 C   0  0  1  0  0  0  0  0  0  0  0  0
    7.0468    3.9420    0.0000 C   0  0  0  0  0  0  0  0  0  0  0  0
    7.0468   -0.0580    0.0000 C   0  0  1  0  0  0  0  0  0  0  0  0
    6.1808    1.4420    0.0000 C   0  0  0  0  0  0  0  0  0  0  0  0
    6.1808   -0.5580    0.0000 C   0  0  0  0  0  0  0  0  0  0  0  0
    7.9128    4.4420    0.0000 C   0  0  0  0  0  0  0  0  0  0  0  0
    6.1808    4.4420    0.0000 C   0  0  0  0  0  0  0  0  0  0  0  0
    7.9128   -0.5580    0.0000 C   0  0  0  0  0  0  0  0  0  0  0  0
    9.6448   -0.5580    0.0000 C   0  0  1  0  0  0  0  0  0  0  0  0
   10.5109   -0.0580    0.0000 C   0  0  0  0  0  0  0  0  0  0  0  0
    6.1808   -1.5580    0.0000 C   0  0  0  0  0  0  0  0  0  0  0  0
    4.4487    2.4420    0.0000 C   0  0  0  0  0  0  0  0  0  0  0  0
   11.3769   -0.5580    0.0000 C   0  0  0  0  0  0  0  0  0  0  0  0
    9.6448   -1.5580    0.0000 C   0  0  0  0  0  0  0  0  0  0  0  0
    5.3147   -2.0580    0.0000 C   0  0  0  0  0  0  0  0  0  0  0  0
    7.0468   -2.0580    0.0000 C   0  0  0  0  0  0  0  0  0  0  0  0
    3.5827    2.9420    0.0000 C   0  0  0  0  0  0  0  0  0  0  0  0
    5.3147   -3.0580    0.0000 C   0  0  0  0  0  0  0  0  0  0  0  0
    7.0468   -3.0580    0.0000 C   0  0  0  0  0  0  0  0  0  0  0  0
   12.2429   -0.0580    0.0000 C   0  0  0  0  0  0  0  0  0  0  0  0
   10.5109   -2.0580    0.0000 C   0  0  0  0  0  0  0  0  0  0  0  0
    6.1808   -3.5580    0.0000 C   0  0  0  0  0  0  0  0  0  0  0  0
    3.4782    3.9365    0.0000 C   0  0  0  0  0  0  0  0  0  0  0  0
    2.5000    4.1444    0.0000 C   0  0  0  0  0  0  0  0  0  0  0  0
   10.5109   -3.0580    0.0000 C   0  0  0  0  0  0  0  0  0  0  0  0
    2.0933    5.0580    0.0000 C   0  0  0  0  0  0  0  0  0  0  0  0
   11.3769   -4.5580    0.0000 C   0  0  0  0  0  0  0  0  0  0  0  0
   12.2429   -5.0580    0.0000 C   0  0  0  0  0  0  0  0  0  0  0  0
    7.2588    2.3594    0.0000 H   0  0  0  0  0  0  0  0  0  0  0  0
    7.6574    3.0497    0.0000 H   0  0  0  0  0  0  0  0  0  0  0  0
    6.1808    3.0620    0.0000 H   0  0  0  0  0  0  0  0  0  0  0  0
    7.0468    4.5620    0.0000 H   0  0  0  0  0  0  0  0  0  0  0  0
    7.5837    0.2520    0.0000 H   0  0  0  0  0  0  0  0  0  0  0  0
    7.5837    1.2520    0.0000 H   0  0  0  0  0  0  0  0  0  0  0  0
    5.9687    0.0246    0.0000 H   0  0  0  0  0  0  0  0  0  0  0  0
    5.5702   -0.6657    0.0000 H   0  0  0  0  0  0  0  0  0  0  0  0
    8.2228    3.9051    0.0000 H   0  0  0  0  0  0  0  0  0  0  0  0
    8.4497    4.7520    0.0000 H   0  0  0  0  0  0  0  0  0  0  0  0
    7.6028    4.9790    0.0000 H   0  0  0  0  0  0  0  0  0  0  0  0
    6.4908    4.9790    0.0000 H   0  0  0  0  0  0  0  0  0  0  0  0
    5.6438    4.7520    0.0000 H   0  0  0  0  0  0  0  0  0  0  0  0
    5.8708    3.9051    0.0000 H   0  0  0  0  0  0  0  0  0  0  0  0
    5.3147    3.5620    0.0000 H   0  0  0  0  0  0  0  0  0  0  0  0
    9.1079   -0.8680    0.0000 H   0  0  0  0  0  0  0  0  0  0  0  0
    8.7788    0.5620    0.0000 H   0  0  0  0  0  0  0  0  0  0  0  0
   10.9094    0.4170    0.0000 H   0  0  0  0  0  0  0  0  0  0  0  0
   10.1124    0.4170    0.0000 H   0  0  0  0  0  0  0  0  0  0  0  0
   10.9784   -1.0329    0.0000 H   0  0  0  0  0  0  0  0  0  0  0  0
   11.7754   -1.0329    0.0000 H   0  0  0  0  0  0  0  0  0  0  0  0
    9.1079   -1.8680    0.0000 H   0  0  0  0  0  0  0  0  0  0  0  0
    4.7778   -1.7480    0.0000 H   0  0  0  0  0  0  0  0  0  0  0  0
    7.5837   -1.7480    0.0000 H   0  0  0  0  0  0  0  0  0  0  0  0
    4.7778   -3.3680    0.0000 H   0  0  0  0  0  0  0  0  0  0  0  0
    7.5837   -3.3680    0.0000 H   0  0  0  0  0  0  0  0  0  0  0  0
   11.0478   -1.7480    0.0000 H   0  0  0  0  0  0  0  0  0  0  0  0
    6.1808   -4.1780    0.0000 H   0  0  0  0  0  0  0  0  0  0  0  0
    3.9389    4.3514    0.0000 H   0  0  0  0  0  0  0  0  0  0  0  0
   13.6459   -0.2480    0.0000 H   0  0  0  0  0  0  0  0  0  0  0  0
   13.1090   -1.1780    0.0000 H   0  0  0  0  0  0  0  0  0  0  0  0
    2.6597    5.3102    0.0000 H   0  0  0  0  0  0  0  0  0  0  0  0
    1.8411    5.6244    0.0000 H   0  0  0  0  0  0  0  0  0  0  0  0
    1.5269    4.8058    0.0000 H   0  0  0  0  0  0  0  0  0  0  0  0
   10.7663   -4.4503    0.0000 H   0  0  0  0  0  0  0  0  0  0  0  0
   11.1649   -5.1406    0.0000 H   0  0  0  0  0  0  0  0  0  0  0  0
   11.9329   -5.5949    0.0000 H   0  0  0  0  0  0  0  0  0  0  0  0
   12.7799   -5.3680    0.0000 H   0  0  0  0  0  0  0  0  0  0  0  0
   12.5529   -4.5210    0.0000 H   0  0  0  0  0  0  0  0  0  0  0  0
  1 17  2  0  0  0  0
  2 21  2  0  0  0  0
  3 25  2  0  0  0  0
  4 11  1  0  0  0  0
  4 37  1  0  0  0  0
  5 33  2  0  0  0  0
  6 38  1  0  0  0  0
  6 40  1  0  0  0  0
  7 38  2  0  0  0  0
 16  8  1  6  0  0  0
  8 17  1  0  0  0  0
  8 47  1  0  0  0  0
 14  9  1  1  0  0  0
  9 25  1  0  0  0  0
  9 56  1  0  0  0  0
 10 21  1  0  0  0  0
 22 10  1  1  0  0  0
 10 58  1  0  0  0  0
 11 30  2  0  0  0  0
 12 33  1  0  0  0  0
 12 71  1  0  0  0  0
 12 72  1  0  0  0  0
 13 14  1  0  0  0  0
 13 15  1  0  0  0  0
 13 42  1  0  0  0  0
 13 43  1  0  0  0  0
 14 17  1  0  0  0  0
 14 44  1  0  0  0  0
 15 19  1  0  0  0  0
 15 20  1  0  0  0  0
 15 45  1  0  0  0  0
 16 18  1  0  0  0  0
 16 21  1  0  0  0  0
 16 46  1  0  0  0  0
 18 24  1  0  0  0  0
 18 48  1  0  0  0  0
 18 49  1  0  0  0  0
 19 50  1  0  0  0  0
 19 51  1  0  0  0  0
 19 52  1  0  0  0  0
 20 53  1  0  0  0  0
 20 54  1  0  0  0  0
 20 55  1  0  0  0  0
 22 23  1  0  0  0  0
 22 27  1  0  0  0  0
 22 57  1  0  0  0  0
 23 26  1  0  0  0  0
 23 59  1  0  0  0  0
 23 60  1  0  0  0  0
 24 28  2  0  0  0  0
 24 29  1  0  0  0  0
 25 30  1  0  0  0  0
 26 33  1  0  0  0  0
 26 61  1  0  0  0  0
 26 62  1  0  0  0  0
 27 34  2  3  0  0  0
 27 63  1  0  0  0  0
 28 31  1  0  0  0  0
 28 64  1  0  0  0  0
 29 32  2  0  0  0  0
 29 65  1  0  0  0  0
 30 36  1  0  0  0  0
 31 35  2  0  0  0  0
 31 66  1  0  0  0  0
 32 35  1  0  0  0  0
 32 67  1  0  0  0  0
 34 38  1  0  0  0  0
 34 68  1  0  0  0  0
 35 69  1  0  0  0  0
 36 37  2  0  0  0  0
 36 70  1  0  0  0  0
 37 39  1  0  0  0  0
 39 73  1  0  0  0  0
 39 74  1  0  0  0  0
 39 75  1  0  0  0  0
 40 41  1  0  0  0  0
 40 76  1  0  0  0  0
 40 77  1  0  0  0  0
 41 78  1  0  0  0  0
 41 79  1  0  0  0  0
 41 80  1  0  0  0  0
M  END
> <PUBCHEM_COMPOUND_CID>
91085238

> <PUBCHEM_COMPOUND_CANONICALIZED>
1

> <PUBCHEM_CACTVS_COMPLEXITY>
919

> <PUBCHEM_CACTVS_HBOND_ACCEPTOR>
8

> <PUBCHEM_CACTVS_HBOND_DONOR>
4

> <PUBCHEM_CACTVS_ROTATABLE_BOND>
17

> <PUBCHEM_CACTVS_SUBSKEYS>
AAADcfB7uAAAAAAAAAAAAAAAAAAAAWAAAAAwAAAAAAAAAAABwAAAHgAUAAAADSzhngYyjJLQBACpA6XyWgCCAAAmIgAomKG+bNoIZjqAtbOWMYhmlhiI6cc/iICOAAAAAAAAAAAAAAAAAAAAAAAAAAAAAA==

> <PUBCHEM_IUPAC_OPENEYE_NAME>
ethyl (4S)-7-amino-4-[[(2S)-2-[[(2S)-4-methyl-2-[(5-methylisoxazole-3-carbonyl)amino]pentanoyl]amino]-3-phenyl-propanoyl]amino]-7-oxo-hept-2-enoate

> <PUBCHEM_IUPAC_CAS_NAME>
(4S)-7-amino-4-[[(2S)-2-[[(2S)-4-methyl-2-[[(5-methyl-3-isoxazolyl)-oxomethyl]amino]-1-oxopentyl]amino]-1-oxo-3-phenylpropyl]amino]-7-oxo-2-heptenoic acid ethyl ester

> <PUBCHEM_IUPAC_NAME_MARKUP>
ethyl (4<I>S</I>)-7-amino-4-[[(2<I>S</I>)-2-[[(2<I>S</I>)-4-methyl-2-[(5-methyl-1,2-oxazole-3-carbonyl)amino]pentanoyl]amino]-3-phenylpropanoyl]amino]-7-oxohept-2-enoate

> <PUBCHEM_IUPAC_NAME>
ethyl (4S)-7-amino-4-[[(2S)-2-[[(2S)-4-methyl-2-[(5-methyl-1,2-oxazole-3-carbonyl)amino]pentanoyl]amino]-3-phenylpropanoyl]amino]-7-oxohept-2-enoate

> <PUBCHEM_IUPAC_SYSTEMATIC_NAME>
ethyl (4S)-7-azanyl-4-[[(2S)-2-[[(2S)-4-methyl-2-[(5-methyl-1,2-oxazol-3-yl)carbonylamino]pentanoyl]amino]-3-phenyl-propanoyl]amino]-7-oxidanylidene-hept-2-enoate

> <PUBCHEM_IUPAC_TRADITIONAL_NAME>
(4S)-7-amino-7-keto-4-[[(2S)-2-[[(2S)-4-methyl-2-[(5-methylisoxazole-3-carbonyl)amino]pentanoyl]amino]-3-phenyl-propanoyl]amino]hept-2-enoic acid ethyl ester

> <PUBCHEM_IUPAC_INCHI>
InChI=1S/C29H39N5O7/c1-5-40-26(36)14-12-21(11-13-25(30)35)31-27(37)23(17-20-9-7-6-8-10-20)33-28(38)22(15-18(2)3)32-29(39)24-16-19(4)41-34-24/h6-10,12,14,16,18,21-23H,5,11,13,15,17H2,1-4H3,(H2,30,35)(H,31,37)(H,32,39)(H,33,38)/t21-,22-,23-/m0/s1

> <PUBCHEM_IUPAC_INCHIKEY>
PRJDINOEQYAYIT-VABKMULXSA-N

> <PUBCHEM_XLOGP3_AA>
2.5

> <PUBCHEM_EXACT_MASS>
569.284949

> <PUBCHEM_MOLECULAR_FORMULA>
C29H39N5O7

> <PUBCHEM_MOLECULAR_WEIGHT>
569.6

> <PUBCHEM_OPENEYE_CAN_SMILES>
CCOC(=O)C=CC(CCC(=O)N)NC(=O)C(CC1=CC=CC=C1)NC(=O)C(CC(C)C)NC(=O)C2=NOC(=C2)C

> <PUBCHEM_OPENEYE_ISO_SMILES>
CCOC(=O)C=C[C@H](CCC(=O)N)NC(=O)[C@H](CC1=CC=CC=C1)NC(=O)[C@H](CC(C)C)NC(=O)C2=NOC(=C2)C

> <PUBCHEM_CACTVS_TPSA>
183

> <PUBCHEM_MONOISOTOPIC_WEIGHT>
569.284949

> <PUBCHEM_TOTAL_CHARGE>
0

> <PUBCHEM_HEAVY_ATOM_COUNT>
41

> <PUBCHEM_ATOM_DEF_STEREO_COUNT>
3

> <PUBCHEM_ATOM_UDEF_STEREO_COUNT>
0

> <PUBCHEM_BOND_DEF_STEREO_COUNT>
0

> <PUBCHEM_BOND_UDEF_STEREO_COUNT>
1

> <PUBCHEM_ISOTOPIC_ATOM_COUNT>
0

> <PUBCHEM_COMPONENT_COUNT>
1

> <PUBCHEM_CACTVS_TAUTO_COUNT>
-1

> <PUBCHEM_COORDINATE_TYPE>
1
5
255

> <PUBCHEM_BONDANNOTATIONS>
22  10  5
11  30  8
24  28  8
24  29  8
27  34  1
28  31  8
29  32  8
30  36  8
31  35  8
32  35  8
36  37  8
4  11  8
4  37  8
16  8  6
14  9  5

$$$$
91104078
  -OEChem-02212016592D

 82 86  0     1  0  0  0  0  0999 V2000
    3.5827   -3.7886    0.0000 F   0  0  0  0  0  0  0  0  0  0  0  0
    5.3147   -4.7886    0.0000 F   0  0  0  0  0  0  0  0  0  0  0  0
   10.5109   -3.7886    0.0000 O   0  0  0  0  0  0  0  0  0  0  0  0
   11.6323    0.5963    0.0000 O   0  0  0  0  0  0  0  0  0  0  0  0
    7.0468   -1.7886    0.0000 O   0  0  0  0  0  0  0  0  0  0  0  0
    8.7788   -3.7886    0.0000 O   0  0  0  0  0  0  0  0  0  0  0  0
    4.4487    0.7114    0.0000 O   0  0  0  0  0  0  0  0  0  0  0  0
    5.3147    4.2114    0.0000 O   0  0  0  0  0  0  0  0  0  0  0  0
    2.0000    4.5478    0.0000 O   0  0  0  0  0  0  0  0  0  0  0  0
   12.0936   -1.1250    0.0000 N   0  0  0  0  0  0  0  0  0  0  0  0
    7.9128   -0.2886    0.0000 N   0  0  0  0  0  0  0  0  0  0  0  0
    6.1808    0.7114    0.0000 N   0  0  0  0  0  0  0  0  0  0  0  0
    4.4487    2.7114    0.0000 N   0  0  0  0  0  0  0  0  0  0  0  0
    2.6691    3.8047    0.0000 N   0  0  0  0  0  0  0  0  0  0  0  0
   10.5109   -0.7886    0.0000 C   0  0  2  0  0  0  0  0  0  0  0  0
   10.5109   -4.7886    0.0000 C   0  0  0  0  0  0  0  0  0  0  0  0
    9.7019   -5.3764    0.0000 C   0  0  0  0  0  0  0  0  0  0  0  0
   11.3199   -5.3764    0.0000 C   0  0  0  0  0  0  0  0  0  0  0  0
    9.6448   -0.2886    0.0000 C   0  0  0  0  0  0  0  0  0  0  0  0
   10.0109   -6.3274    0.0000 C   0  0  0  0  0  0  0  0  0  0  0  0
   11.0109   -6.3274    0.0000 C   0  0  0  0  0  0  0  0  0  0  0  0
   10.6154   -1.7831    0.0000 C   0  0  0  0  0  0  0  0  0  0  0  0
    8.7788   -0.7886    0.0000 C   0  0  1  0  0  0  0  0  0  0  0  0
   11.5936   -1.9910    0.0000 C   0  0  0  0  0  0  0  0  0  0  0  0
   11.4244   -0.3818    0.0000 C   0  0  0  0  0  0  0  0  0  0  0  0
    8.7788   -1.7886    0.0000 C   0  0  0  0  0  0  0  0  0  0  0  0
    6.1808   -0.2886    0.0000 C   0  0  2  0  0  0  0  0  0  0  0  0
    7.0468   -0.7886    0.0000 C   0  0  0  0  0  0  0  0  0  0  0  0
    9.6448   -2.2886    0.0000 C   0  0  0  0  0  0  0  0  0  0  0  0
    9.6448   -3.2886    0.0000 C   0  0  0  0  0  0  0  0  0  0  0  0
    5.3147   -0.7886    0.0000 C   0  0  0  0  0  0  0  0  0  0  0  0
    5.3147   -1.7886    0.0000 C   0  0  0  0  0  0  0  0  0  0  0  0
    5.3147    1.2114    0.0000 C   0  0  0  0  0  0  0  0  0  0  0  0
    7.0468    1.2114    0.0000 C   0  0  0  0  0  0  0  0  0  0  0  0
    5.3147    2.2114    0.0000 C   0  0  0  0  0  0  0  0  0  0  0  0
    4.4487   -2.2886    0.0000 C   0  0  0  0  0  0  0  0  0  0  0  0
    6.1808   -2.2886    0.0000 C   0  0  0  0  0  0  0  0  0  0  0  0
    7.0468    2.2114    0.0000 C   0  0  0  0  0  0  0  0  0  0  0  0
    6.1808    2.7114    0.0000 C   0  0  0  0  0  0  0  0  0  0  0  0
    4.4487   -3.2886    0.0000 C   0  0  0  0  0  0  0  0  0  0  0  0
    6.1808   -3.2886    0.0000 C   0  0  0  0  0  0  0  0  0  0  0  0
    5.3147   -3.7886    0.0000 C   0  0  0  0  0  0  0  0  0  0  0  0
    4.4487    3.7114    0.0000 C   0  0  0  0  0  0  0  0  0  0  0  0
    3.5827    4.2114    0.0000 C   0  0  0  0  0  0  0  0  0  0  0  0
    3.4782    5.2059    0.0000 C   0  0  0  0  0  0  0  0  0  0  0  0
    2.5000    5.4139    0.0000 C   0  0  0  0  0  0  0  0  0  0  0  0
    2.0933    6.3274    0.0000 C   0  0  0  0  0  0  0  0  0  0  0  0
   10.5433   -0.1694    0.0000 H   0  0  0  0  0  0  0  0  0  0  0  0
   11.0633   -4.5071    0.0000 H   0  0  0  0  0  0  0  0  0  0  0  0
    9.3919   -4.8394    0.0000 H   0  0  0  0  0  0  0  0  0  0  0  0
    9.1355   -5.6285    0.0000 H   0  0  0  0  0  0  0  0  0  0  0  0
   11.8863   -5.6285    0.0000 H   0  0  0  0  0  0  0  0  0  0  0  0
   11.6299   -4.8394    0.0000 H   0  0  0  0  0  0  0  0  0  0  0  0
   10.0434    0.1864    0.0000 H   0  0  0  0  0  0  0  0  0  0  0  0
    9.2463    0.1864    0.0000 H   0  0  0  0  0  0  0  0  0  0  0  0
    9.4044   -6.4563    0.0000 H   0  0  0  0  0  0  0  0  0  0  0  0
   10.0757   -6.9440    0.0000 H   0  0  0  0  0  0  0  0  0  0  0  0
   10.9461   -6.9440    0.0000 H   0  0  0  0  0  0  0  0  0  0  0  0
   11.6173   -6.4563    0.0000 H   0  0  0  0  0  0  0  0  0  0  0  0
    9.9954   -1.7831    0.0000 H   0  0  0  0  0  0  0  0  0  0  0  0
   10.5506   -2.3997    0.0000 H   0  0  0  0  0  0  0  0  0  0  0  0
    8.2419   -1.0986    0.0000 H   0  0  0  0  0  0  0  0  0  0  0  0
   11.4020   -2.5807    0.0000 H   0  0  0  0  0  0  0  0  0  0  0  0
   12.1600   -2.2432    0.0000 H   0  0  0  0  0  0  0  0  0  0  0  0
   12.7102   -1.0602    0.0000 H   0  0  0  0  0  0  0  0  0  0  0  0
    7.9128    0.3314    0.0000 H   0  0  0  0  0  0  0  0  0  0  0  0
    8.2419   -2.0986    0.0000 H   0  0  0  0  0  0  0  0  0  0  0  0
    6.7177    0.0214    0.0000 H   0  0  0  0  0  0  0  0  0  0  0  0
   10.1818   -1.9786    0.0000 H   0  0  0  0  0  0  0  0  0  0  0  0
    5.1027   -0.2060    0.0000 H   0  0  0  0  0  0  0  0  0  0  0  0
    4.7042   -0.8962    0.0000 H   0  0  0  0  0  0  0  0  0  0  0  0
    7.5837    0.9014    0.0000 H   0  0  0  0  0  0  0  0  0  0  0  0
    3.9118   -1.9786    0.0000 H   0  0  0  0  0  0  0  0  0  0  0  0
    6.7177   -1.9786    0.0000 H   0  0  0  0  0  0  0  0  0  0  0  0
    7.5837    2.5214    0.0000 H   0  0  0  0  0  0  0  0  0  0  0  0
    6.1808    3.3314    0.0000 H   0  0  0  0  0  0  0  0  0  0  0  0
    6.7177   -3.5986    0.0000 H   0  0  0  0  0  0  0  0  0  0  0  0
    3.9118    2.4014    0.0000 H   0  0  0  0  0  0  0  0  0  0  0  0
    3.9389    5.6208    0.0000 H   0  0  0  0  0  0  0  0  0  0  0  0
    2.6597    6.5796    0.0000 H   0  0  0  0  0  0  0  0  0  0  0  0
    1.8411    6.8938    0.0000 H   0  0  0  0  0  0  0  0  0  0  0  0
    1.5269    6.0752    0.0000 H   0  0  0  0  0  0  0  0  0  0  0  0
  1 40  1  0  0  0  0
  2 42  1  0  0  0  0
  3 16  1  0  0  0  0
  3 30  1  0  0  0  0
  4 25  2  0  0  0  0
  5 28  2  0  0  0  0
  6 30  2  0  0  0  0
  7 33  2  0  0  0  0
  8 43  2  0  0  0  0
  9 14  1  0  0  0  0
  9 46  1  0  0  0  0
 10 24  1  0  0  0  0
 10 25  1  0  0  0  0
 10 65  1  0  0  0  0
 23 11  1  1  0  0  0
 11 28  1  0  0  0  0
 11 66  1  0  0  0  0
 12 27  1  0  0  0  0
 12 33  1  0  0  0  0
 12 34  1  0  0  0  0
 13 35  1  0  0  0  0
 13 43  1  0  0  0  0
 13 78  1  0  0  0  0
 14 44  2  0  0  0  0
 15 19  1  1  0  0  0
 15 22  1  0  0  0  0
 15 25  1  0  0  0  0
 15 48  1  0  0  0  0
 16 17  1  0  0  0  0
 16 18  1  0  0  0  0
 16 49  1  0  0  0  0
 17 20  1  0  0  0  0
 17 50  1  0  0  0  0
 17 51  1  0  0  0  0
 18 21  1  0  0  0  0
 18 52  1  0  0  0  0
 18 53  1  0  0  0  0
 19 23  1  0  0  0  0
 19 54  1  0  0  0  0
 19 55  1  0  0  0  0
 20 21  1  0  0  0  0
 20 56  1  0  0  0  0
 20 57  1  0  0  0  0
 21 58  1  0  0  0  0
 21 59  1  0  0  0  0
 22 24  1  0  0  0  0
 22 60  1  0  0  0  0
 22 61  1  0  0  0  0
 23 26  1  0  0  0  0
 23 62  1  0  0  0  0
 24 63  1  0  0  0  0
 24 64  1  0  0  0  0
 26 29  2  3  0  0  0
 26 67  1  0  0  0  0
 27 28  1  6  0  0  0
 27 31  1  0  0  0  0
 27 68  1  0  0  0  0
 29 30  1  0  0  0  0
 29 69  1  0  0  0  0
 31 32  1  0  0  0  0
 31 70  1  0  0  0  0
 31 71  1  0  0  0  0
 32 36  2  0  0  0  0
 32 37  1  0  0  0  0
 33 35  1  0  0  0  0
 34 38  2  0  0  0  0
 34 72  1  0  0  0  0
 35 39  2  0  0  0  0
 36 40  1  0  0  0  0
 36 73  1  0  0  0  0
 37 41  2  0  0  0  0
 37 74  1  0  0  0  0
 38 39  1  0  0  0  0
 38 75  1  0  0  0  0
 39 76  1  0  0  0  0
 40 42  2  0  0  0  0
 41 42  1  0  0  0  0
 41 77  1  0  0  0  0
 43 44  1  0  0  0  0
 44 45  1  0  0  0  0
 45 46  2  0  0  0  0
 45 79  1  0  0  0  0
 46 47  1  0  0  0  0
 47 80  1  0  0  0  0
 47 81  1  0  0  0  0
 47 82  1  0  0  0  0
M  END
> <PUBCHEM_COMPOUND_CID>
91104078

> <PUBCHEM_COMPOUND_CANONICALIZED>
1

> <PUBCHEM_CACTVS_COMPLEXITY>
1290

> <PUBCHEM_CACTVS_HBOND_ACCEPTOR>
10

> <PUBCHEM_CACTVS_HBOND_DONOR>
3

> <PUBCHEM_CACTVS_ROTATABLE_BOND>
13

> <PUBCHEM_CACTVS_SUBSKEYS>
AAADcfB/uYAAAAAAAAAAAAAAAAAAAeLEAAAwQAAAAAAAAAABwAAAHwAUAAAADTzhng4yjJPQBACpA6X2WgCCAAAmIgAomKG+bNoIZjqAtbOWMYhmlhiI6ce/iICOAAAAAAAAAAAAAAAAAAAAAAAAAAAAAA==

> <PUBCHEM_IUPAC_OPENEYE_NAME>
cyclopentyl (4S)-4-[[(2S)-3-(3,4-difluorophenyl)-2-[3-[(5-methylisoxazole-3-carbonyl)amino]-2-oxo-1-pyridyl]propanoyl]amino]-5-[(3S)-2-oxopyrrolidin-3-yl]pent-2-enoate

> <PUBCHEM_IUPAC_CAS_NAME>
(4S)-4-[[(2S)-3-(3,4-difluorophenyl)-2-[3-[[(5-methyl-3-isoxazolyl)-oxomethyl]amino]-2-oxo-1-pyridinyl]-1-oxopropyl]amino]-5-[(3S)-2-oxo-3-pyrrolidinyl]-2-pentenoic acid cyclopentyl ester

> <PUBCHEM_IUPAC_NAME_MARKUP>
cyclopentyl (4<I>S</I>)-4-[[(2<I>S</I>)-3-(3,4-difluorophenyl)-2-[3-[(5-methyl-1,2-oxazole-3-carbonyl)amino]-2-oxopyridin-1-yl]propanoyl]amino]-5-[(3<I>S</I>)-2-oxopyrrolidin-3-yl]pent-2-enoate

> <PUBCHEM_IUPAC_NAME>
cyclopentyl (4S)-4-[[(2S)-3-(3,4-difluorophenyl)-2-[3-[(5-methyl-1,2-oxazole-3-carbonyl)amino]-2-oxopyridin-1-yl]propanoyl]amino]-5-[(3S)-2-oxopyrrolidin-3-yl]pent-2-enoate

> <PUBCHEM_IUPAC_SYSTEMATIC_NAME>
cyclopentyl (4S)-4-[[(2S)-3-[3,4-bis(fluoranyl)phenyl]-2-[3-[(5-methyl-1,2-oxazol-3-yl)carbonylamino]-2-oxidanylidene-pyridin-1-yl]propanoyl]amino]-5-[(3S)-2-oxidanylidenepyrrolidin-3-yl]pent-2-enoate

> <PUBCHEM_IUPAC_TRADITIONAL_NAME>
(4S)-4-[[(2S)-3-(3,4-difluorophenyl)-2-[2-keto-3-[(5-methylisoxazole-3-carbonyl)amino]-1-pyridyl]propanoyl]amino]-5-[(3S)-2-ketopyrrolidin-3-yl]pent-2-enoic acid cyclopentyl ester

> <PUBCHEM_IUPAC_INCHI>
InChI=1S/C33H35F2N5O7/c1-19-15-27(39-47-19)31(43)38-26-7-4-14-40(33(26)45)28(17-20-8-10-24(34)25(35)16-20)32(44)37-22(18-21-12-13-36-30(21)42)9-11-29(41)46-23-5-2-3-6-23/h4,7-11,14-16,21-23,28H,2-3,5-6,12-13,17-18H2,1H3,(H,36,42)(H,37,44)(H,38,43)/t21-,22+,28-/m0/s1

> <PUBCHEM_IUPAC_INCHIKEY>
CUXVCXTXZGIJIV-TYPXCFOJSA-N

> <PUBCHEM_XLOGP3_AA>
3.4

> <PUBCHEM_EXACT_MASS>
651.250455

> <PUBCHEM_MOLECULAR_FORMULA>
C33H35F2N5O7

> <PUBCHEM_MOLECULAR_WEIGHT>
651.7

> <PUBCHEM_OPENEYE_CAN_SMILES>
CC1=CC(=NO1)C(=O)NC2=CC=CN(C2=O)C(CC3=CC(=C(C=C3)F)F)C(=O)NC(CC4CCNC4=O)C=CC(=O)OC5CCCC5

> <PUBCHEM_OPENEYE_ISO_SMILES>
CC1=CC(=NO1)C(=O)NC2=CC=CN(C2=O)[C@@H](CC3=CC(=C(C=C3)F)F)C(=O)N[C@@H](C[C@@H]4CCNC4=O)C=CC(=O)OC5CCCC5

> <PUBCHEM_CACTVS_TPSA>
160

> <PUBCHEM_MONOISOTOPIC_WEIGHT>
651.250455

> <PUBCHEM_TOTAL_CHARGE>
0

> <PUBCHEM_HEAVY_ATOM_COUNT>
47

> <PUBCHEM_ATOM_DEF_STEREO_COUNT>
3

> <PUBCHEM_ATOM_UDEF_STEREO_COUNT>
0

> <PUBCHEM_BOND_DEF_STEREO_COUNT>
0

> <PUBCHEM_BOND_UDEF_STEREO_COUNT>
1

> <PUBCHEM_ISOTOPIC_ATOM_COUNT>
0

> <PUBCHEM_COMPONENT_COUNT>
1

> <PUBCHEM_CACTVS_TAUTO_COUNT>
-1

> <PUBCHEM_COORDINATE_TYPE>
1
5
255

> <PUBCHEM_BONDANNOTATIONS>
23  11  5
12  33  8
12  34  8
14  44  8
15  19  5
26  29  1
27  28  6
32  36  8
32  37  8
33  35  8
34  38  8
35  39  8
36  40  8
37  41  8
38  39  8
40  42  8
41  42  8
44  45  8
45  46  8
9  14  8
9  46  8

$$$$
91218291
  -OEChem-02212016592D

142147  0     1  0  0  0  0  0999 V2000
    8.5586    0.4563    0.0000 O   0  0  0  0  0  0  0  0  0  0  0  0
    6.5991    2.6200    0.0000 O   0  0  0  0  0  0  0  0  0  0  0  0
    4.0010    5.1200    0.0000 O   0  0  0  0  0  0  0  0  0  0  0  0
    5.9672   16.8600    0.0000 O   0  0  0  0  0  0  0  0  0  0  0  0
    3.3691   19.3600    0.0000 O   0  0  0  0  0  0  0  0  0  0  0  0
    3.1350    8.6200    0.0000 O   0  0  0  0  0  0  0  0  0  0  0  0
    4.8671    8.6200    0.0000 O   0  0  0  0  0  0  0  0  0  0  0  0
    7.6992   14.8600    0.0000 O   0  0  0  0  0  0  0  0  0  0  0  0
    4.2351   22.8600    0.0000 O   0  0  0  0  0  0  0  0  0  0  0  0
    0.9204   23.1964    0.0000 O   0  0  0  0  0  0  0  0  0  0  0  0
   10.2799    0.9176    0.0000 N   0  0  0  0  0  0  0  0  0  0  0  0
    7.4651    4.1200    0.0000 N   0  0  0  0  0  0  0  0  0  0  0  0
    5.7331    5.1200    0.0000 N   0  0  0  0  0  0  0  0  0  0  0  0
    5.1011   19.3600    0.0000 N   0  0  0  0  0  0  0  0  0  0  0  0
    4.0010    7.1200    0.0000 N   0  0  0  0  0  0  0  0  0  0  0  0
    6.8332   18.3600    0.0000 N   0  0  0  0  0  0  0  0  0  0  0  0
    3.3691   21.3600    0.0000 N   0  0  0  0  0  0  0  0  0  0  0  0
    9.4312   14.8600    0.0000 N   0  0  0  0  0  0  0  0  0  0  0  0
    1.5895   22.4533    0.0000 N   0  0  0  0  0  0  0  0  0  0  0  0
    9.1972    2.1200    0.0000 C   0  0  1  0  0  0  0  0  0  0  0  0
   10.1107    2.5267    0.0000 C   0  0  0  0  0  0  0  0  0  0  0  0
    8.3312    2.6200    0.0000 C   0  0  0  0  0  0  0  0  0  0  0  0
   10.7799    1.7836    0.0000 C   0  0  0  0  0  0  0  0  0  0  0  0
    8.3312    3.6200    0.0000 C   0  0  1  0  0  0  0  0  0  0  0  0
    9.3017    1.1255    0.0000 C   0  0  0  0  0  0  0  0  0  0  0  0
    9.1972    4.1200    0.0000 C   0  0  0  0  0  0  0  0  0  0  0  0
    5.7331    4.1200    0.0000 C   0  0  2  0  0  0  0  0  0  0  0  0
    6.5991    3.6200    0.0000 C   0  0  0  0  0  0  0  0  0  0  0  0
    4.8671    3.6200    0.0000 C   0  0  0  0  0  0  0  0  0  0  0  0
    9.1972    5.1200    0.0000 C   0  0  0  0  0  0  0  0  0  0  0  0
    4.8671    2.6200    0.0000 C   0  0  0  0  0  0  0  0  0  0  0  0
   10.0632    5.6200    0.0000 C   0  0  0  0  0  0  0  0  0  0  0  0
    4.8671    5.6200    0.0000 C   0  0  0  0  0  0  0  0  0  0  0  0
    6.5991    5.6200    0.0000 C   0  0  0  0  0  0  0  0  0  0  0  0
    4.8671    6.6200    0.0000 C   0  0  0  0  0  0  0  0  0  0  0  0
    4.0010    2.1200    0.0000 C   0  0  0  0  0  0  0  0  0  0  0  0
    5.7331    2.1200    0.0000 C   0  0  0  0  0  0  0  0  0  0  0  0
    6.5991    6.6200    0.0000 C   0  0  0  0  0  0  0  0  0  0  0  0
    5.1011   18.3600    0.0000 C   0  0  1  0  0  0  0  0  0  0  0  0
    5.7331    7.1200    0.0000 C   0  0  0  0  0  0  0  0  0  0  0  0
    4.2351   17.8600    0.0000 C   0  0  0  0  0  0  0  0  0  0  0  0
    4.0010    1.1200    0.0000 C   0  0  0  0  0  0  0  0  0  0  0  0
    5.7331    1.1200    0.0000 C   0  0  0  0  0  0  0  0  0  0  0  0
    7.6992   17.8600    0.0000 C   0  0  1  0  0  0  0  0  0  0  0  0
    5.9672   17.8600    0.0000 C   0  0  0  0  0  0  0  0  0  0  0  0
    4.8671    0.6200    0.0000 C   0  0  0  0  0  0  0  0  0  0  0  0
    7.6992   16.8600    0.0000 C   0  0  0  0  0  0  0  0  0  0  0  0
    4.2351   16.8600    0.0000 C   0  0  0  0  0  0  0  0  0  0  0  0
    4.2351   19.8600    0.0000 C   0  0  0  0  0  0  0  0  0  0  0  0
    5.9672   19.8600    0.0000 C   0  0  0  0  0  0  0  0  0  0  0  0
    4.2351   20.8600    0.0000 C   0  0  0  0  0  0  0  0  0  0  0  0
    8.5652   16.3600    0.0000 C   0  0  0  0  0  0  0  0  0  0  0  0
    5.1011   21.3600    0.0000 C   0  0  0  0  0  0  0  0  0  0  0  0
    8.5652   18.3600    0.0000 C   0  0  0  0  0  0  0  0  0  0  0  0
    5.9672   20.8600    0.0000 C   0  0  0  0  0  0  0  0  0  0  0  0
    3.3691   16.3600    0.0000 C   0  0  0  0  0  0  0  0  0  0  0  0
    5.1011   16.3600    0.0000 C   0  0  0  0  0  0  0  0  0  0  0  0
    4.0010    8.1200    0.0000 C   0  0  0  0  0  0  0  0  0  0  0  0
    5.1011   22.3600    0.0000 C   0  0  0  0  0  0  0  0  0  0  0  0
    9.4312   17.8600    0.0000 C   0  0  0  0  0  0  0  0  0  0  0  0
    3.3691   15.3600    0.0000 C   0  0  0  0  0  0  0  0  0  0  0  0
    5.1011   15.3600    0.0000 C   0  0  0  0  0  0  0  0  0  0  0  0
    8.5652   15.3600    0.0000 C   0  0  0  0  0  0  0  0  0  0  0  0
    4.2351   14.8600    0.0000 C   0  0  0  0  0  0  0  0  0  0  0  0
    3.3691   22.3600    0.0000 C   0  0  0  0  0  0  0  0  0  0  0  0
   10.2973   18.3600    0.0000 C   0  0  0  0  0  0  0  0  0  0  0  0
    3.1350    9.6200    0.0000 C   0  0  0  0  0  0  0  0  0  0  0  0
    2.5030   22.8600    0.0000 C   0  0  0  0  0  0  0  0  0  0  0  0
    2.2690   10.1200    0.0000 C   0  0  0  0  0  0  0  0  0  0  0  0
    2.3985   23.8545    0.0000 C   0  0  0  0  0  0  0  0  0  0  0  0
    1.4204   24.0624    0.0000 C   0  0  0  0  0  0  0  0  0  0  0  0
    2.2690   11.1200    0.0000 C   0  0  0  0  0  0  0  0  0  0  0  0
    1.4030    9.6200    0.0000 C   0  0  0  0  0  0  0  0  0  0  0  0
    1.0136   24.9760    0.0000 C   0  0  0  0  0  0  0  0  0  0  0  0
    1.4030   11.6200    0.0000 C   0  0  0  0  0  0  0  0  0  0  0  0
    0.5369   10.1200    0.0000 C   0  0  0  0  0  0  0  0  0  0  0  0
    0.5369   11.1200    0.0000 C   0  0  0  0  0  0  0  0  0  0  0  0
    9.2296    2.7392    0.0000 H   0  0  0  0  0  0  0  0  0  0  0  0
   10.6123    2.8912    0.0000 H   0  0  0  0  0  0  0  0  0  0  0  0
    9.8007    3.0637    0.0000 H   0  0  0  0  0  0  0  0  0  0  0  0
    7.7206    2.7277    0.0000 H   0  0  0  0  0  0  0  0  0  0  0  0
    8.1191    2.0374    0.0000 H   0  0  0  0  0  0  0  0  0  0  0  0
   11.2815    1.4192    0.0000 H   0  0  0  0  0  0  0  0  0  0  0  0
   11.1947    2.2443    0.0000 H   0  0  0  0  0  0  0  0  0  0  0  0
    7.7942    3.3100    0.0000 H   0  0  0  0  0  0  0  0  0  0  0  0
   10.5320    0.3512    0.0000 H   0  0  0  0  0  0  0  0  0  0  0  0
    7.4651    4.7400    0.0000 H   0  0  0  0  0  0  0  0  0  0  0  0
    9.7341    3.8100    0.0000 H   0  0  0  0  0  0  0  0  0  0  0  0
    6.2700    4.4300    0.0000 H   0  0  0  0  0  0  0  0  0  0  0  0
    4.6550    4.2026    0.0000 H   0  0  0  0  0  0  0  0  0  0  0  0
    4.2565    3.5123    0.0000 H   0  0  0  0  0  0  0  0  0  0  0  0
    8.6602    5.4300    0.0000 H   0  0  0  0  0  0  0  0  0  0  0  0
   10.3732    5.0831    0.0000 H   0  0  0  0  0  0  0  0  0  0  0  0
   10.6002    5.9300    0.0000 H   0  0  0  0  0  0  0  0  0  0  0  0
    9.7532    6.1569    0.0000 H   0  0  0  0  0  0  0  0  0  0  0  0
    7.1360    5.3100    0.0000 H   0  0  0  0  0  0  0  0  0  0  0  0
    3.4641    2.4300    0.0000 H   0  0  0  0  0  0  0  0  0  0  0  0
    6.2700    2.4300    0.0000 H   0  0  0  0  0  0  0  0  0  0  0  0
    7.1360    6.9300    0.0000 H   0  0  0  0  0  0  0  0  0  0  0  0
    5.6381   18.6700    0.0000 H   0  0  0  0  0  0  0  0  0  0  0  0
    5.7331    7.7400    0.0000 H   0  0  0  0  0  0  0  0  0  0  0  0
    4.0230   18.4426    0.0000 H   0  0  0  0  0  0  0  0  0  0  0  0
    3.6245   17.7523    0.0000 H   0  0  0  0  0  0  0  0  0  0  0  0
    7.1623   17.5500    0.0000 H   0  0  0  0  0  0  0  0  0  0  0  0
    3.4641    0.8100    0.0000 H   0  0  0  0  0  0  0  0  0  0  0  0
    6.2700    0.8100    0.0000 H   0  0  0  0  0  0  0  0  0  0  0  0
    3.4641    6.8100    0.0000 H   0  0  0  0  0  0  0  0  0  0  0  0
    6.8332   18.9800    0.0000 H   0  0  0  0  0  0  0  0  0  0  0  0
    7.0886   16.9677    0.0000 H   0  0  0  0  0  0  0  0  0  0  0  0
    7.4872   16.2774    0.0000 H   0  0  0  0  0  0  0  0  0  0  0  0
    4.8671    0.0000    0.0000 H   0  0  0  0  0  0  0  0  0  0  0  0
    6.5041   19.5500    0.0000 H   0  0  0  0  0  0  0  0  0  0  0  0
    9.1758   16.2523    0.0000 H   0  0  0  0  0  0  0  0  0  0  0  0
    8.7773   16.9426    0.0000 H   0  0  0  0  0  0  0  0  0  0  0  0
    8.5652   18.9800    0.0000 H   0  0  0  0  0  0  0  0  0  0  0  0
    6.5041   21.1700    0.0000 H   0  0  0  0  0  0  0  0  0  0  0  0
    2.8321   16.6700    0.0000 H   0  0  0  0  0  0  0  0  0  0  0  0
    5.6381   16.6700    0.0000 H   0  0  0  0  0  0  0  0  0  0  0  0
    5.7211   22.3600    0.0000 H   0  0  0  0  0  0  0  0  0  0  0  0
    5.1011   22.9800    0.0000 H   0  0  0  0  0  0  0  0  0  0  0  0
    4.4811   22.3600    0.0000 H   0  0  0  0  0  0  0  0  0  0  0  0
    2.8321   21.0500    0.0000 H   0  0  0  0  0  0  0  0  0  0  0  0
    9.4312   17.2400    0.0000 H   0  0  0  0  0  0  0  0  0  0  0  0
    2.8321   15.0500    0.0000 H   0  0  0  0  0  0  0  0  0  0  0  0
    5.6381   15.0500    0.0000 H   0  0  0  0  0  0  0  0  0  0  0  0
    4.2351   14.2400    0.0000 H   0  0  0  0  0  0  0  0  0  0  0  0
   10.6073   17.8231    0.0000 H   0  0  0  0  0  0  0  0  0  0  0  0
   10.8342   18.6700    0.0000 H   0  0  0  0  0  0  0  0  0  0  0  0
    9.9873   18.8969    0.0000 H   0  0  0  0  0  0  0  0  0  0  0  0
    9.4312   14.2400    0.0000 H   0  0  0  0  0  0  0  0  0  0  0  0
    9.9682   15.1700    0.0000 H   0  0  0  0  0  0  0  0  0  0  0  0
    3.7456    9.5123    0.0000 H   0  0  0  0  0  0  0  0  0  0  0  0
    3.3471   10.2026    0.0000 H   0  0  0  0  0  0  0  0  0  0  0  0
    2.8593   24.2694    0.0000 H   0  0  0  0  0  0  0  0  0  0  0  0
    2.8059   11.4300    0.0000 H   0  0  0  0  0  0  0  0  0  0  0  0
    1.4030    9.0000    0.0000 H   0  0  0  0  0  0  0  0  0  0  0  0
    1.5800   25.2282    0.0000 H   0  0  0  0  0  0  0  0  0  0  0  0
    0.7615   25.5424    0.0000 H   0  0  0  0  0  0  0  0  0  0  0  0
    0.4472   24.7238    0.0000 H   0  0  0  0  0  0  0  0  0  0  0  0
    1.4030   12.2400    0.0000 H   0  0  0  0  0  0  0  0  0  0  0  0
    0.0000    9.8100    0.0000 H   0  0  0  0  0  0  0  0  0  0  0  0
    0.0000   11.4300    0.0000 H   0  0  0  0  0  0  0  0  0  0  0  0
  1 25  2  0  0  0  0
  2 28  2  0  0  0  0
  3 33  2  0  0  0  0
  4 45  2  0  0  0  0
  5 49  2  0  0  0  0
  6 58  1  0  0  0  0
  6 67  1  0  0  0  0
  7 58  2  0  0  0  0
  8 63  2  0  0  0  0
  9 65  2  0  0  0  0
 10 19  1  0  0  0  0
 10 71  1  0  0  0  0
 11 23  1  0  0  0  0
 11 25  1  0  0  0  0
 11 86  1  0  0  0  0
 24 12  1  6  0  0  0
 12 28  1  0  0  0  0
 12 87  1  0  0  0  0
 13 27  1  0  0  0  0
 13 33  1  0  0  0  0
 13 34  1  0  0  0  0
 14 39  1  0  0  0  0
 14 49  1  0  0  0  0
 14 50  1  0  0  0  0
 15 35  1  0  0  0  0
 15 58  1  0  0  0  0
 15107  1  0  0  0  0
 44 16  1  6  0  0  0
 16 45  1  0  0  0  0
 16108  1  0  0  0  0
 17 51  1  0  0  0  0
 17 65  1  0  0  0  0
 17122  1  0  0  0  0
 18 63  1  0  0  0  0
 18130  1  0  0  0  0
 18131  1  0  0  0  0
 19 68  2  0  0  0  0
 20 21  1  0  0  0  0
 20 22  1  6  0  0  0
 20 25  1  0  0  0  0
 20 78  1  0  0  0  0
 21 23  1  0  0  0  0
 21 79  1  0  0  0  0
 21 80  1  0  0  0  0
 22 24  1  0  0  0  0
 22 81  1  0  0  0  0
 22 82  1  0  0  0  0
 23 83  1  0  0  0  0
 23 84  1  0  0  0  0
 24 26  1  0  0  0  0
 24 85  1  0  0  0  0
 26 30  2  0  0  0  0
 26 88  1  0  0  0  0
 27 28  1  6  0  0  0
 27 29  1  0  0  0  0
 27 89  1  0  0  0  0
 29 31  1  0  0  0  0
 29 90  1  0  0  0  0
 29 91  1  0  0  0  0
 30 32  1  0  0  0  0
 30 92  1  0  0  0  0
 31 36  2  0  0  0  0
 31 37  1  0  0  0  0
 32 93  1  0  0  0  0
 32 94  1  0  0  0  0
 32 95  1  0  0  0  0
 33 35  1  0  0  0  0
 34 38  2  0  0  0  0
 34 96  1  0  0  0  0
 35 40  2  0  0  0  0
 36 42  1  0  0  0  0
 36 97  1  0  0  0  0
 37 43  2  0  0  0  0
 37 98  1  0  0  0  0
 38 40  1  0  0  0  0
 38 99  1  0  0  0  0
 39 41  1  0  0  0  0
 39 45  1  6  0  0  0
 39100  1  0  0  0  0
 40101  1  0  0  0  0
 41 48  1  0  0  0  0
 41102  1  0  0  0  0
 41103  1  0  0  0  0
 42 46  2  0  0  0  0
 42105  1  0  0  0  0
 43 46  1  0  0  0  0
 43106  1  0  0  0  0
 44 47  1  0  0  0  0
 44 54  1  0  0  0  0
 44104  1  0  0  0  0
 46111  1  0  0  0  0
 47 52  1  0  0  0  0
 47109  1  0  0  0  0
 47110  1  0  0  0  0
 48 56  2  0  0  0  0
 48 57  1  0  0  0  0
 49 51  1  0  0  0  0
 50 55  2  0  0  0  0
 50112  1  0  0  0  0
 51 53  2  0  0  0  0
 52 63  1  0  0  0  0
 52113  1  0  0  0  0
 52114  1  0  0  0  0
 53 55  1  0  0  0  0
 53 59  1  0  0  0  0
 54 60  2  0  0  0  0
 54115  1  0  0  0  0
 55116  1  0  0  0  0
 56 61  1  0  0  0  0
 56117  1  0  0  0  0
 57 62  2  0  0  0  0
 57118  1  0  0  0  0
 59119  1  0  0  0  0
 59120  1  0  0  0  0
 59121  1  0  0  0  0
 60 66  1  0  0  0  0
 60123  1  0  0  0  0
 61 64  2  0  0  0  0
 61124  1  0  0  0  0
 62 64  1  0  0  0  0
 62125  1  0  0  0  0
 64126  1  0  0  0  0
 65 68  1  0  0  0  0
 66127  1  0  0  0  0
 66128  1  0  0  0  0
 66129  1  0  0  0  0
 67 69  1  0  0  0  0
 67132  1  0  0  0  0
 67133  1  0  0  0  0
 68 70  1  0  0  0  0
 69 72  2  0  0  0  0
 69 73  1  0  0  0  0
 70 71  2  0  0  0  0
 70134  1  0  0  0  0
 71 74  1  0  0  0  0
 72 75  1  0  0  0  0
 72135  1  0  0  0  0
 73 76  2  0  0  0  0
 73136  1  0  0  0  0
 74137  1  0  0  0  0
 74138  1  0  0  0  0
 74139  1  0  0  0  0
 75 77  2  0  0  0  0
 75140  1  0  0  0  0
 76 77  1  0  0  0  0
 76141  1  0  0  0  0
 77142  1  0  0  0  0
M  END
> <PUBCHEM_COMPOUND_CID>
91218291

> <PUBCHEM_COMPOUND_CANONICALIZED>
1

> <PUBCHEM_CACTVS_COMPLEXITY>
1950

> <PUBCHEM_CACTVS_HBOND_ACCEPTOR>
11

> <PUBCHEM_CACTVS_HBOND_DONOR>
6

> <PUBCHEM_CACTVS_ROTATABLE_BOND>
23

> <PUBCHEM_CACTVS_SUBSKEYS>
AAADcfB//AAAAAAAAAAAAAAAAAAAAWLAAAAwYMECAAAAAAAB1AAAHgAUAAAADSzhngYyjJPQBACpA6V2WgCCAAAmIgAomKG+bNsIZjqAtbucMYhm1hmI6ce/yKCOAAAAAAAAAAAAAAAAAAAAAAAAAAAAAA==

> <PUBCHEM_IUPAC_OPENEYE_NAME>
N-[1-[(1S)-2-[[(E,1S)-1-(3-amino-3-oxo-propyl)but-2-enyl]amino]-1-benzyl-2-oxo-ethyl]-4-methyl-2-oxo-3-pyridyl]-5-methyl-isoxazole-3-carboxamide;benzyl N-[1-[(1S)-1-benzyl-2-oxo-2-[[(E,1S)-1-[[(3S)-2-oxopyrrolidin-3-yl]methyl]but-2-enyl]amino]ethyl]-2-oxo-3-pyridyl]carbamate

> <PUBCHEM_IUPAC_CAS_NAME>
N-[1-[(2S)-1-[[(E,4S)-7-amino-7-oxohept-2-en-4-yl]amino]-1-oxo-3-phenylpropan-2-yl]-4-methyl-2-oxo-3-pyridinyl]-5-methyl-3-isoxazolecarboxamide;N-[2-oxo-1-[(2S)-1-oxo-1-[[(E,2S)-1-[(3S)-2-oxo-3-pyrrolidinyl]pent-3-en-2-yl]amino]-3-phenylpropan-2-yl]-3-pyridinyl]carbamic acid (phenylmethyl) ester

> <PUBCHEM_IUPAC_NAME_MARKUP>
<I>N</I>-[1-[(2<I>S</I>)-1-[[(<I>E</I>,4<I>S</I>)-7-amino-7-oxohept-2-en-4-yl]amino]-1-oxo-3-phenylpropan-2-yl]-4-methyl-2-oxopyridin-3-yl]-5-methyl-1,2-oxazole-3-carboxamide;benzyl <I>N</I>-[2-oxo-1-[(2<I>S</I>)-1-oxo-1-[[(<I>E</I>,2<I>S</I>)-1-[(3<I>S</I>)-2-oxopyrrolidin-3-yl]pent-3-en-2-yl]amino]-3-phenylpropan-2-yl]pyridin-3-yl]carbamate

> <PUBCHEM_IUPAC_NAME>
N-[1-[(2S)-1-[[(E,4S)-7-amino-7-oxohept-2-en-4-yl]amino]-1-oxo-3-phenylpropan-2-yl]-4-methyl-2-oxopyridin-3-yl]-5-methyl-1,2-oxazole-3-carboxamide;benzyl N-[2-oxo-1-[(2S)-1-oxo-1-[[(E,2S)-1-[(3S)-2-oxopyrrolidin-3-yl]pent-3-en-2-yl]amino]-3-phenylpropan-2-yl]pyridin-3-yl]carbamate

> <PUBCHEM_IUPAC_SYSTEMATIC_NAME>
N-[1-[(2S)-1-[[(E,4S)-7-azanyl-7-oxidanylidene-hept-2-en-4-yl]amino]-1-oxidanylidene-3-phenyl-propan-2-yl]-4-methyl-2-oxidanylidene-pyridin-3-yl]-5-methyl-1,2-oxazole-3-carboxamide;(phenylmethyl) N-[2-oxidanylidene-1-[(2S)-1-oxidanylidene-1-[[(E,2S)-1-[(3S)-2-oxidanylidenepyrrolidin-3-yl]pent-3-en-2-yl]amino]-3-phenyl-propan-2-yl]pyridin-3-yl]carbamate

> <PUBCHEM_IUPAC_TRADITIONAL_NAME>
N-[1-[(1S)-2-[[(E,1S)-1-(3-amino-3-keto-propyl)but-2-enyl]amino]-1-benzyl-2-keto-ethyl]-2-keto-4-methyl-3-pyridyl]-5-methyl-isoxazole-3-carboxamide;N-[1-[(1S)-1-benzyl-2-keto-2-[[(E,1S)-1-[[(3S)-2-ketopyrrolidin-3-yl]methyl]but-2-enyl]amino]ethyl]-2-keto-3-pyridyl]carbamic acid benzyl ester

> <PUBCHEM_IUPAC_INCHI>
InChI=1S/C31H34N4O5.C27H31N5O5/c1-2-10-25(20-24-16-17-32-28(24)36)33-29(37)27(19-22-11-5-3-6-12-22)35-18-9-15-26(30(35)38)34-31(39)40-21-23-13-7-4-8-14-23;1-4-8-20(11-12-23(28)33)29-26(35)22(16-19-9-6-5-7-10-19)32-14-13-17(2)24(27(32)36)30-25(34)21-15-18(3)37-31-21/h2-15,18,24-25,27H,16-17,19-21H2,1H3,(H,32,36)(H,33,37)(H,34,39);4-10,13-15,20,22H,11-12,16H2,1-3H3,(H2,28,33)(H,29,35)(H,30,34)/b10-2+;8-4+/t24-,25+,27-;20-,22+/m01/s1

> <PUBCHEM_IUPAC_INCHIKEY>
JRBQBOZZIAFEFA-ZQOHUTPOSA-N

> <PUBCHEM_EXACT_MASS>
1047.485439

> <PUBCHEM_MOLECULAR_FORMULA>
C58H65N9O10

> <PUBCHEM_MOLECULAR_WEIGHT>
1048.2

> <PUBCHEM_OPENEYE_CAN_SMILES>
CC=CC(CCC(=O)N)NC(=O)C(CC1=CC=CC=C1)N2C=CC(=C(C2=O)NC(=O)C3=NOC(=C3)C)C.CC=CC(CC1CCNC1=O)NC(=O)C(CC2=CC=CC=C2)N3C=CC=C(C3=O)NC(=O)OCC4=CC=CC=C4

> <PUBCHEM_OPENEYE_ISO_SMILES>
C/C=C/[C@H](CCC(=O)N)NC(=O)[C@H](CC1=CC=CC=C1)N2C=CC(=C(C2=O)NC(=O)C3=NOC(=C3)C)C.C/C=C/[C@H](C[C@@H]1CCNC1=O)NC(=O)[C@H](CC2=CC=CC=C2)N3C=CC=C(C3=O)NC(=O)OCC4=CC=CC=C4

> <PUBCHEM_CACTVS_TPSA>
265

> <PUBCHEM_MONOISOTOPIC_WEIGHT>
1047.485439

> <PUBCHEM_TOTAL_CHARGE>
0

> <PUBCHEM_HEAVY_ATOM_COUNT>
77

> <PUBCHEM_ATOM_DEF_STEREO_COUNT>
5

> <PUBCHEM_ATOM_UDEF_STEREO_COUNT>
0

> <PUBCHEM_BOND_DEF_STEREO_COUNT>
2

> <PUBCHEM_BOND_UDEF_STEREO_COUNT>
0

> <PUBCHEM_ISOTOPIC_ATOM_COUNT>
0

> <PUBCHEM_COMPONENT_COUNT>
2

> <PUBCHEM_CACTVS_TAUTO_COUNT>
-1

> <PUBCHEM_COORDINATE_TYPE>
1
5
255

> <PUBCHEM_BONDANNOTATIONS>
10  19  8
10  71  8
24  12  6
13  33  8
13  34  8
14  49  8
14  50  8
44  16  6
19  68  8
20  22  6
27  28  6
31  36  8
31  37  8
33  35  8
34  38  8
35  40  8
36  42  8
37  43  8
38  40  8
39  45  6
42  46  8
43  46  8
48  56  8
48  57  8
49  51  8
50  55  8
51  53  8
53  55  8
56  61  8
57  62  8
61  64  8
62  64  8
68  70  8
69  72  8
69  73  8
70  71  8
72  75  8
73  76  8
75  77  8
76  77  8

$$$$
91328107
  -OEChem-02212016592D

 73 77  0     1  0  0  0  0  0999 V2000
    5.3147   -5.5580    0.0000 F   0  0  0  0  0  0  0  0  0  0  0  0
   11.4049    0.2208    0.0000 O   0  0  0  0  0  0  0  0  0  0  0  0
   10.7275   -4.2604    0.0000 O   0  0  0  0  0  0  0  0  0  0  0  0
    7.0468   -2.5580    0.0000 O   0  0  0  0  0  0  0  0  0  0  0  0
    9.0062   -4.7216    0.0000 O   0  0  0  0  0  0  0  0  0  0  0  0
    4.4487   -0.0580    0.0000 O   0  0  0  0  0  0  0  0  0  0  0  0
    5.3147    3.4420    0.0000 O   0  0  0  0  0  0  0  0  0  0  0  0
    2.0000    3.7784    0.0000 O   0  0  0  0  0  0  0  0  0  0  0  0
   10.1449    1.4808    0.0000 N   0  0  0  0  0  0  0  0  0  0  0  0
    7.9128   -1.0580    0.0000 N   0  0  0  0  0  0  0  0  0  0  0  0
    6.1808   -0.0580    0.0000 N   0  0  0  0  0  0  0  0  0  0  0  0
    4.4487    1.9420    0.0000 N   0  0  0  0  0  0  0  0  0  0  0  0
    2.6691    3.0353    0.0000 N   0  0  0  0  0  0  0  0  0  0  0  0
    9.6448   -0.0580    0.0000 C   0  0  2  0  0  0  0  0  0  0  0  0
    9.6448   -1.0580    0.0000 C   0  0  0  0  0  0  0  0  0  0  0  0
    8.8358    0.5298    0.0000 C   0  0  0  0  0  0  0  0  0  0  0  0
    8.7788   -1.5580    0.0000 C   0  0  1  0  0  0  0  0  0  0  0  0
    9.1448    1.4808    0.0000 C   0  0  0  0  0  0  0  0  0  0  0  0
   10.4539    0.5298    0.0000 C   0  0  0  0  0  0  0  0  0  0  0  0
    8.7788   -2.5580    0.0000 C   0  0  0  0  0  0  0  0  0  0  0  0
    6.1808   -1.0580    0.0000 C   0  0  2  0  0  0  0  0  0  0  0  0
    7.0468   -1.5580    0.0000 C   0  0  0  0  0  0  0  0  0  0  0  0
    9.6448   -3.0580    0.0000 C   0  0  0  0  0  0  0  0  0  0  0  0
    5.3147   -1.5580    0.0000 C   0  0  0  0  0  0  0  0  0  0  0  0
   10.5584   -2.6512    0.0000 C   0  0  0  0  0  0  0  0  0  0  0  0
   11.2275   -3.3944    0.0000 C   0  0  0  0  0  0  0  0  0  0  0  0
    9.7494   -4.0525    0.0000 C   0  0  0  0  0  0  0  0  0  0  0  0
    5.3147   -2.5580    0.0000 C   0  0  0  0  0  0  0  0  0  0  0  0
    5.3147    0.4420    0.0000 C   0  0  0  0  0  0  0  0  0  0  0  0
    7.0468    0.4420    0.0000 C   0  0  0  0  0  0  0  0  0  0  0  0
    5.3147    1.4420    0.0000 C   0  0  0  0  0  0  0  0  0  0  0  0
    6.1808   -3.0580    0.0000 C   0  0  0  0  0  0  0  0  0  0  0  0
    4.4487   -3.0580    0.0000 C   0  0  0  0  0  0  0  0  0  0  0  0
    7.0468    1.4420    0.0000 C   0  0  0  0  0  0  0  0  0  0  0  0
    6.1808    1.9420    0.0000 C   0  0  0  0  0  0  0  0  0  0  0  0
    6.1808   -4.0580    0.0000 C   0  0  0  0  0  0  0  0  0  0  0  0
    4.4487   -4.0580    0.0000 C   0  0  0  0  0  0  0  0  0  0  0  0
    5.3147   -4.5580    0.0000 C   0  0  0  0  0  0  0  0  0  0  0  0
    4.4487    2.9420    0.0000 C   0  0  0  0  0  0  0  0  0  0  0  0
    3.5827    3.4420    0.0000 C   0  0  0  0  0  0  0  0  0  0  0  0
    3.4782    4.4365    0.0000 C   0  0  0  0  0  0  0  0  0  0  0  0
    2.5000    4.6444    0.0000 C   0  0  0  0  0  0  0  0  0  0  0  0
    2.0933    5.5580    0.0000 C   0  0  0  0  0  0  0  0  0  0  0  0
    9.0924   -0.3395    0.0000 H   0  0  0  0  0  0  0  0  0  0  0  0
    9.8569   -1.6406    0.0000 H   0  0  0  0  0  0  0  0  0  0  0  0
   10.2554   -0.9503    0.0000 H   0  0  0  0  0  0  0  0  0  0  0  0
    8.2694    0.7820    0.0000 H   0  0  0  0  0  0  0  0  0  0  0  0
    8.5258   -0.0071    0.0000 H   0  0  0  0  0  0  0  0  0  0  0  0
    8.2419   -1.8680    0.0000 H   0  0  0  0  0  0  0  0  0  0  0  0
    9.2097    2.0975    0.0000 H   0  0  0  0  0  0  0  0  0  0  0  0
    8.5384    1.6098    0.0000 H   0  0  0  0  0  0  0  0  0  0  0  0
   10.5093    1.9824    0.0000 H   0  0  0  0  0  0  0  0  0  0  0  0
    7.9128   -0.4380    0.0000 H   0  0  0  0  0  0  0  0  0  0  0  0
    8.2419   -2.8680    0.0000 H   0  0  0  0  0  0  0  0  0  0  0  0
    6.7177   -0.7480    0.0000 H   0  0  0  0  0  0  0  0  0  0  0  0
    5.1027   -0.9754    0.0000 H   0  0  0  0  0  0  0  0  0  0  0  0
    4.7042   -1.6656    0.0000 H   0  0  0  0  0  0  0  0  0  0  0  0
   11.0600   -2.2868    0.0000 H   0  0  0  0  0  0  0  0  0  0  0  0
   10.2484   -2.1143    0.0000 H   0  0  0  0  0  0  0  0  0  0  0  0
   11.7291   -3.7588    0.0000 H   0  0  0  0  0  0  0  0  0  0  0  0
   11.6424   -2.9336    0.0000 H   0  0  0  0  0  0  0  0  0  0  0  0
    7.5837    0.1320    0.0000 H   0  0  0  0  0  0  0  0  0  0  0  0
    6.7177   -2.7480    0.0000 H   0  0  0  0  0  0  0  0  0  0  0  0
    3.9118   -2.7480    0.0000 H   0  0  0  0  0  0  0  0  0  0  0  0
    7.5837    1.7520    0.0000 H   0  0  0  0  0  0  0  0  0  0  0  0
    6.1808    2.5620    0.0000 H   0  0  0  0  0  0  0  0  0  0  0  0
    6.7177   -4.3680    0.0000 H   0  0  0  0  0  0  0  0  0  0  0  0
    3.9118   -4.3680    0.0000 H   0  0  0  0  0  0  0  0  0  0  0  0
    3.9118    1.6320    0.0000 H   0  0  0  0  0  0  0  0  0  0  0  0
    3.9389    4.8514    0.0000 H   0  0  0  0  0  0  0  0  0  0  0  0
    2.6597    5.8102    0.0000 H   0  0  0  0  0  0  0  0  0  0  0  0
    1.8411    6.1244    0.0000 H   0  0  0  0  0  0  0  0  0  0  0  0
    1.5269    5.3058    0.0000 H   0  0  0  0  0  0  0  0  0  0  0  0
  1 38  1  0  0  0  0
  2 19  2  0  0  0  0
  3 26  1  0  0  0  0
  3 27  1  0  0  0  0
  4 22  2  0  0  0  0
  5 27  2  0  0  0  0
  6 29  2  0  0  0  0
  7 39  2  0  0  0  0
  8 13  1  0  0  0  0
  8 42  1  0  0  0  0
  9 18  1  0  0  0  0
  9 19  1  0  0  0  0
  9 52  1  0  0  0  0
 17 10  1  1  0  0  0
 10 22  1  0  0  0  0
 10 53  1  0  0  0  0
 11 21  1  0  0  0  0
 11 29  1  0  0  0  0
 11 30  1  0  0  0  0
 12 31  1  0  0  0  0
 12 39  1  0  0  0  0
 12 69  1  0  0  0  0
 13 40  2  0  0  0  0
 14 15  1  6  0  0  0
 14 16  1  0  0  0  0
 14 19  1  0  0  0  0
 14 44  1  0  0  0  0
 15 17  1  0  0  0  0
 15 45  1  0  0  0  0
 15 46  1  0  0  0  0
 16 18  1  0  0  0  0
 16 47  1  0  0  0  0
 16 48  1  0  0  0  0
 17 20  1  0  0  0  0
 17 49  1  0  0  0  0
 18 50  1  0  0  0  0
 18 51  1  0  0  0  0
 20 23  2  3  0  0  0
 20 54  1  0  0  0  0
 21 22  1  6  0  0  0
 21 24  1  0  0  0  0
 21 55  1  0  0  0  0
 23 25  1  0  0  0  0
 23 27  1  0  0  0  0
 24 28  1  0  0  0  0
 24 56  1  0  0  0  0
 24 57  1  0  0  0  0
 25 26  1  0  0  0  0
 25 58  1  0  0  0  0
 25 59  1  0  0  0  0
 26 60  1  0  0  0  0
 26 61  1  0  0  0  0
 28 32  2  0  0  0  0
 28 33  1  0  0  0  0
 29 31  1  0  0  0  0
 30 34  2  0  0  0  0
 30 62  1  0  0  0  0
 31 35  2  0  0  0  0
 32 36  1  0  0  0  0
 32 63  1  0  0  0  0
 33 37  2  0  0  0  0
 33 64  1  0  0  0  0
 34 35  1  0  0  0  0
 34 65  1  0  0  0  0
 35 66  1  0  0  0  0
 36 38  2  0  0  0  0
 36 67  1  0  0  0  0
 37 38  1  0  0  0  0
 37 68  1  0  0  0  0
 39 40  1  0  0  0  0
 40 41  1  0  0  0  0
 41 42  2  0  0  0  0
 41 70  1  0  0  0  0
 42 43  1  0  0  0  0
 43 71  1  0  0  0  0
 43 72  1  0  0  0  0
 43 73  1  0  0  0  0
M  END
> <PUBCHEM_COMPOUND_CID>
91328107

> <PUBCHEM_COMPOUND_CANONICALIZED>
1

> <PUBCHEM_CACTVS_COMPLEXITY>
1210

> <PUBCHEM_CACTVS_HBOND_ACCEPTOR>
9

> <PUBCHEM_CACTVS_HBOND_DONOR>
3

> <PUBCHEM_CACTVS_ROTATABLE_BOND>
10

> <PUBCHEM_CACTVS_SUBSKEYS>
AAADceB7uQAAAAAAAAAAAAAAAAAAAWLEgAAwQAAAAAAAAAABwAAAHwAUAAAADSzhng4yjJPQBACpA6X2WgCCAAAmIgAomKG+bNoIZjqAtbOWMYhm1hiI6cc/iICOAAAAAAAAAAAAAAAAAAAAAAAAAAAAAA==

> <PUBCHEM_IUPAC_OPENEYE_NAME>
N-[1-[(1S)-1-[(4-fluorophenyl)methyl]-2-oxo-2-[[(1S)-1-[[(3S)-2-oxopyrrolidin-3-yl]methyl]-2-(2-oxotetrahydrofuran-3-ylidene)ethyl]amino]ethyl]-2-oxo-3-pyridyl]-5-methyl-isoxazole-3-carboxamide

> <PUBCHEM_IUPAC_CAS_NAME>
N-[1-[(2S)-3-(4-fluorophenyl)-1-oxo-1-[[(2S)-1-(2-oxo-3-oxolanylidene)-3-[(3S)-2-oxo-3-pyrrolidinyl]propan-2-yl]amino]propan-2-yl]-2-oxo-3-pyridinyl]-5-methyl-3-isoxazolecarboxamide

> <PUBCHEM_IUPAC_NAME_MARKUP>
<I>N</I>-[1-[(2<I>S</I>)-3-(4-fluorophenyl)-1-oxo-1-[[(2<I>S</I>)-1-(2-oxooxolan-3-ylidene)-3-[(3<I>S</I>)-2-oxopyrrolidin-3-yl]propan-2-yl]amino]propan-2-yl]-2-oxopyridin-3-yl]-5-methyl-1,2-oxazole-3-carboxamide

> <PUBCHEM_IUPAC_NAME>
N-[1-[(2S)-3-(4-fluorophenyl)-1-oxo-1-[[(2S)-1-(2-oxooxolan-3-ylidene)-3-[(3S)-2-oxopyrrolidin-3-yl]propan-2-yl]amino]propan-2-yl]-2-oxopyridin-3-yl]-5-methyl-1,2-oxazole-3-carboxamide

> <PUBCHEM_IUPAC_SYSTEMATIC_NAME>
N-[1-[(2S)-3-(4-fluorophenyl)-1-oxidanylidene-1-[[(2S)-1-(2-oxidanylideneoxolan-3-ylidene)-3-[(3S)-2-oxidanylidenepyrrolidin-3-yl]propan-2-yl]amino]propan-2-yl]-2-oxidanylidene-pyridin-3-yl]-5-methyl-1,2-oxazole-3-carboxamide

> <PUBCHEM_IUPAC_TRADITIONAL_NAME>
N-[1-[(1S)-1-(4-fluorobenzyl)-2-keto-2-[[(1S)-1-[[(3S)-2-ketopyrrolidin-3-yl]methyl]-2-(2-ketotetrahydrofuran-3-ylidene)ethyl]amino]ethyl]-2-keto-3-pyridyl]-5-methyl-isoxazole-3-carboxamide

> <PUBCHEM_IUPAC_INCHI>
InChI=1S/C30H30FN5O7/c1-17-13-24(35-43-17)27(38)34-23-3-2-11-36(29(23)40)25(14-18-4-6-21(31)7-5-18)28(39)33-22(15-19-8-10-32-26(19)37)16-20-9-12-42-30(20)41/h2-7,11,13,16,19,22,25H,8-10,12,14-15H2,1H3,(H,32,37)(H,33,39)(H,34,38)/t19-,22-,25-/m0/s1

> <PUBCHEM_IUPAC_INCHIKEY>
SYRRIXCEQDEKDO-JTJYXVOQSA-N

> <PUBCHEM_XLOGP3_AA>
2

> <PUBCHEM_EXACT_MASS>
591.212926

> <PUBCHEM_MOLECULAR_FORMULA>
C30H30FN5O7

> <PUBCHEM_MOLECULAR_WEIGHT>
591.6

> <PUBCHEM_OPENEYE_CAN_SMILES>
CC1=CC(=NO1)C(=O)NC2=CC=CN(C2=O)C(CC3=CC=C(C=C3)F)C(=O)NC(CC4CCNC4=O)C=C5CCOC5=O

> <PUBCHEM_OPENEYE_ISO_SMILES>
CC1=CC(=NO1)C(=O)NC2=CC=CN(C2=O)[C@@H](CC3=CC=C(C=C3)F)C(=O)N[C@@H](C[C@@H]4CCNC4=O)C=C5CCOC5=O

> <PUBCHEM_CACTVS_TPSA>
160

> <PUBCHEM_MONOISOTOPIC_WEIGHT>
591.212926

> <PUBCHEM_TOTAL_CHARGE>
0

> <PUBCHEM_HEAVY_ATOM_COUNT>
43

> <PUBCHEM_ATOM_DEF_STEREO_COUNT>
3

> <PUBCHEM_ATOM_UDEF_STEREO_COUNT>
0

> <PUBCHEM_BOND_DEF_STEREO_COUNT>
0

> <PUBCHEM_BOND_UDEF_STEREO_COUNT>
1

> <PUBCHEM_ISOTOPIC_ATOM_COUNT>
0

> <PUBCHEM_COMPONENT_COUNT>
1

> <PUBCHEM_CACTVS_TAUTO_COUNT>
-1

> <PUBCHEM_COORDINATE_TYPE>
1
5
255

> <PUBCHEM_BONDANNOTATIONS>
17  10  5
11  29  8
11  30  8
13  40  8
14  15  6
20  23  1
21  22  6
28  32  8
28  33  8
29  31  8
30  34  8
31  35  8
32  36  8
33  37  8
34  35  8
36  38  8
37  38  8
40  41  8
41  42  8
8  13  8
8  42  8

$$$$
91410415
  -OEChem-02212016592D

 85 89  0     1  0  0  0  0  0999 V2000
    3.5827   -3.5580    0.0000 F   0  0  0  0  0  0  0  0  0  0  0  0
    5.3147   -4.5580    0.0000 F   0  0  0  0  0  0  0  0  0  0  0  0
   10.5109   -3.5580    0.0000 O   0  0  0  0  0  0  0  0  0  0  0  0
   11.6323    0.8269    0.0000 O   0  0  0  0  0  0  0  0  0  0  0  0
    7.0468   -1.5580    0.0000 O   0  0  0  0  0  0  0  0  0  0  0  0
    8.7788   -3.5580    0.0000 O   0  0  0  0  0  0  0  0  0  0  0  0
    4.4487    0.9420    0.0000 O   0  0  0  0  0  0  0  0  0  0  0  0
    5.3147    4.4420    0.0000 O   0  0  0  0  0  0  0  0  0  0  0  0
    2.0000    4.7784    0.0000 O   0  0  0  0  0  0  0  0  0  0  0  0
   12.0936   -0.8944    0.0000 N   0  0  0  0  0  0  0  0  0  0  0  0
    7.9128   -0.0580    0.0000 N   0  0  0  0  0  0  0  0  0  0  0  0
    6.1808    0.9420    0.0000 N   0  0  0  0  0  0  0  0  0  0  0  0
    4.4487    2.9420    0.0000 N   0  0  0  0  0  0  0  0  0  0  0  0
    2.6691    4.0353    0.0000 N   0  0  0  0  0  0  0  0  0  0  0  0
   10.5109   -0.5580    0.0000 C   0  0  2  0  0  0  0  0  0  0  0  0
   10.5109   -4.5580    0.0000 C   0  0  0  0  0  0  0  0  0  0  0  0
    9.6448   -0.0580    0.0000 C   0  0  0  0  0  0  0  0  0  0  0  0
   10.6154   -1.5525    0.0000 C   0  0  0  0  0  0  0  0  0  0  0  0
    9.6448   -5.0580    0.0000 C   0  0  0  0  0  0  0  0  0  0  0  0
   11.3769   -5.0580    0.0000 C   0  0  0  0  0  0  0  0  0  0  0  0
    9.6448   -6.0580    0.0000 C   0  0  0  0  0  0  0  0  0  0  0  0
   11.3769   -6.0580    0.0000 C   0  0  0  0  0  0  0  0  0  0  0  0
   10.5109   -6.5580    0.0000 C   0  0  0  0  0  0  0  0  0  0  0  0
    8.7788   -0.5580    0.0000 C   0  0  1  0  0  0  0  0  0  0  0  0
   11.5936   -1.7604    0.0000 C   0  0  0  0  0  0  0  0  0  0  0  0
   11.4244   -0.1513    0.0000 C   0  0  0  0  0  0  0  0  0  0  0  0
    8.7788   -1.5580    0.0000 C   0  0  0  0  0  0  0  0  0  0  0  0
    6.1808   -0.0580    0.0000 C   0  0  2  0  0  0  0  0  0  0  0  0
    7.0468   -0.5580    0.0000 C   0  0  0  0  0  0  0  0  0  0  0  0
    9.6448   -2.0580    0.0000 C   0  0  0  0  0  0  0  0  0  0  0  0
    9.6448   -3.0580    0.0000 C   0  0  0  0  0  0  0  0  0  0  0  0
    5.3147   -0.5580    0.0000 C   0  0  0  0  0  0  0  0  0  0  0  0
    5.3147   -1.5580    0.0000 C   0  0  0  0  0  0  0  0  0  0  0  0
    5.3147    1.4420    0.0000 C   0  0  0  0  0  0  0  0  0  0  0  0
    7.0468    1.4420    0.0000 C   0  0  0  0  0  0  0  0  0  0  0  0
    5.3147    2.4420    0.0000 C   0  0  0  0  0  0  0  0  0  0  0  0
    4.4487   -2.0580    0.0000 C   0  0  0  0  0  0  0  0  0  0  0  0
    6.1808   -2.0580    0.0000 C   0  0  0  0  0  0  0  0  0  0  0  0
    7.0468    2.4420    0.0000 C   0  0  0  0  0  0  0  0  0  0  0  0
    6.1808    2.9420    0.0000 C   0  0  0  0  0  0  0  0  0  0  0  0
    4.4487   -3.0580    0.0000 C   0  0  0  0  0  0  0  0  0  0  0  0
    6.1808   -3.0580    0.0000 C   0  0  0  0  0  0  0  0  0  0  0  0
    5.3147   -3.5580    0.0000 C   0  0  0  0  0  0  0  0  0  0  0  0
    4.4487    3.9420    0.0000 C   0  0  0  0  0  0  0  0  0  0  0  0
    3.5827    4.4420    0.0000 C   0  0  0  0  0  0  0  0  0  0  0  0
    3.4782    5.4365    0.0000 C   0  0  0  0  0  0  0  0  0  0  0  0
    2.5000    5.6444    0.0000 C   0  0  0  0  0  0  0  0  0  0  0  0
    2.0933    6.5580    0.0000 C   0  0  0  0  0  0  0  0  0  0  0  0
   10.5433    0.0612    0.0000 H   0  0  0  0  0  0  0  0  0  0  0  0
   11.0478   -4.2480    0.0000 H   0  0  0  0  0  0  0  0  0  0  0  0
   10.0434    0.4170    0.0000 H   0  0  0  0  0  0  0  0  0  0  0  0
    9.2463    0.4170    0.0000 H   0  0  0  0  0  0  0  0  0  0  0  0
    9.9954   -1.5525    0.0000 H   0  0  0  0  0  0  0  0  0  0  0  0
   10.5506   -2.1691    0.0000 H   0  0  0  0  0  0  0  0  0  0  0  0
    9.4328   -4.4754    0.0000 H   0  0  0  0  0  0  0  0  0  0  0  0
    9.0343   -5.1656    0.0000 H   0  0  0  0  0  0  0  0  0  0  0  0
   11.9875   -5.1656    0.0000 H   0  0  0  0  0  0  0  0  0  0  0  0
   11.5890   -4.4754    0.0000 H   0  0  0  0  0  0  0  0  0  0  0  0
    9.0343   -5.9503    0.0000 H   0  0  0  0  0  0  0  0  0  0  0  0
    9.4328   -6.6406    0.0000 H   0  0  0  0  0  0  0  0  0  0  0  0
   11.5890   -6.6406    0.0000 H   0  0  0  0  0  0  0  0  0  0  0  0
   11.9875   -5.9503    0.0000 H   0  0  0  0  0  0  0  0  0  0  0  0
   10.1124   -7.0329    0.0000 H   0  0  0  0  0  0  0  0  0  0  0  0
   10.9094   -7.0329    0.0000 H   0  0  0  0  0  0  0  0  0  0  0  0
    8.2419   -0.8680    0.0000 H   0  0  0  0  0  0  0  0  0  0  0  0
   11.4020   -2.3501    0.0000 H   0  0  0  0  0  0  0  0  0  0  0  0
   12.1600   -2.0126    0.0000 H   0  0  0  0  0  0  0  0  0  0  0  0
   12.7102   -0.8296    0.0000 H   0  0  0  0  0  0  0  0  0  0  0  0
    7.9128    0.5620    0.0000 H   0  0  0  0  0  0  0  0  0  0  0  0
    8.2419   -1.8680    0.0000 H   0  0  0  0  0  0  0  0  0  0  0  0
    6.7177    0.2520    0.0000 H   0  0  0  0  0  0  0  0  0  0  0  0
   10.1818   -1.7480    0.0000 H   0  0  0  0  0  0  0  0  0  0  0  0
    5.1027    0.0246    0.0000 H   0  0  0  0  0  0  0  0  0  0  0  0
    4.7042   -0.6657    0.0000 H   0  0  0  0  0  0  0  0  0  0  0  0
    7.5837    1.1320    0.0000 H   0  0  0  0  0  0  0  0  0  0  0  0
    3.9118   -1.7480    0.0000 H   0  0  0  0  0  0  0  0  0  0  0  0
    6.7177   -1.7480    0.0000 H   0  0  0  0  0  0  0  0  0  0  0  0
    7.5837    2.7520    0.0000 H   0  0  0  0  0  0  0  0  0  0  0  0
    6.1808    3.5620    0.0000 H   0  0  0  0  0  0  0  0  0  0  0  0
    6.7177   -3.3680    0.0000 H   0  0  0  0  0  0  0  0  0  0  0  0
    3.9118    2.6320    0.0000 H   0  0  0  0  0  0  0  0  0  0  0  0
    3.9389    5.8514    0.0000 H   0  0  0  0  0  0  0  0  0  0  0  0
    2.6597    6.8102    0.0000 H   0  0  0  0  0  0  0  0  0  0  0  0
    1.8411    7.1244    0.0000 H   0  0  0  0  0  0  0  0  0  0  0  0
    1.5269    6.3058    0.0000 H   0  0  0  0  0  0  0  0  0  0  0  0
  1 41  1  0  0  0  0
  2 43  1  0  0  0  0
  3 16  1  0  0  0  0
  3 31  1  0  0  0  0
  4 26  2  0  0  0  0
  5 29  2  0  0  0  0
  6 31  2  0  0  0  0
  7 34  2  0  0  0  0
  8 44  2  0  0  0  0
  9 14  1  0  0  0  0
  9 47  1  0  0  0  0
 10 25  1  0  0  0  0
 10 26  1  0  0  0  0
 10 68  1  0  0  0  0
 24 11  1  1  0  0  0
 11 29  1  0  0  0  0
 11 69  1  0  0  0  0
 12 28  1  0  0  0  0
 12 34  1  0  0  0  0
 12 35  1  0  0  0  0
 13 36  1  0  0  0  0
 13 44  1  0  0  0  0
 13 81  1  0  0  0  0
 14 45  2  0  0  0  0
 15 17  1  1  0  0  0
 15 18  1  0  0  0  0
 15 26  1  0  0  0  0
 15 49  1  0  0  0  0
 16 19  1  0  0  0  0
 16 20  1  0  0  0  0
 16 50  1  0  0  0  0
 17 24  1  0  0  0  0
 17 51  1  0  0  0  0
 17 52  1  0  0  0  0
 18 25  1  0  0  0  0
 18 53  1  0  0  0  0
 18 54  1  0  0  0  0
 19 21  1  0  0  0  0
 19 55  1  0  0  0  0
 19 56  1  0  0  0  0
 20 22  1  0  0  0  0
 20 57  1  0  0  0  0
 20 58  1  0  0  0  0
 21 23  1  0  0  0  0
 21 59  1  0  0  0  0
 21 60  1  0  0  0  0
 22 23  1  0  0  0  0
 22 61  1  0  0  0  0
 22 62  1  0  0  0  0
 23 63  1  0  0  0  0
 23 64  1  0  0  0  0
 24 27  1  0  0  0  0
 24 65  1  0  0  0  0
 25 66  1  0  0  0  0
 25 67  1  0  0  0  0
 27 30  2  3  0  0  0
 27 70  1  0  0  0  0
 28 29  1  6  0  0  0
 28 32  1  0  0  0  0
 28 71  1  0  0  0  0
 30 31  1  0  0  0  0
 30 72  1  0  0  0  0
 32 33  1  0  0  0  0
 32 73  1  0  0  0  0
 32 74  1  0  0  0  0
 33 37  2  0  0  0  0
 33 38  1  0  0  0  0
 34 36  1  0  0  0  0
 35 39  2  0  0  0  0
 35 75  1  0  0  0  0
 36 40  2  0  0  0  0
 37 41  1  0  0  0  0
 37 76  1  0  0  0  0
 38 42  2  0  0  0  0
 38 77  1  0  0  0  0
 39 40  1  0  0  0  0
 39 78  1  0  0  0  0
 40 79  1  0  0  0  0
 41 43  2  0  0  0  0
 42 43  1  0  0  0  0
 42 80  1  0  0  0  0
 44 45  1  0  0  0  0
 45 46  1  0  0  0  0
 46 47  2  0  0  0  0
 46 82  1  0  0  0  0
 47 48  1  0  0  0  0
 48 83  1  0  0  0  0
 48 84  1  0  0  0  0
 48 85  1  0  0  0  0
M  END
> <PUBCHEM_COMPOUND_CID>
91410415

> <PUBCHEM_COMPOUND_CANONICALIZED>
1

> <PUBCHEM_CACTVS_COMPLEXITY>
1300

> <PUBCHEM_CACTVS_HBOND_ACCEPTOR>
10

> <PUBCHEM_CACTVS_HBOND_DONOR>
3

> <PUBCHEM_CACTVS_ROTATABLE_BOND>
13

> <PUBCHEM_CACTVS_SUBSKEYS>
AAADcfB/uYAAAAAAAAAAAAAAAAAAAWLAAAAwYIAAAAAAAAABwAAAHwAUAAAADTzhng4yjJPQBACpA6X2WgCCAAAmIgAomKG+bNoIZjqAtbOWMYhmlhiI6ce/yICOAAAAAAAAAAAAAAAAAAAAAAAAAAAAAA==

> <PUBCHEM_IUPAC_OPENEYE_NAME>
cyclohexyl (4S)-4-[[(2S)-3-(3,4-difluorophenyl)-2-[3-[(5-methylisoxazole-3-carbonyl)amino]-2-oxo-1-pyridyl]propanoyl]amino]-5-[(3S)-2-oxopyrrolidin-3-yl]pent-2-enoate

> <PUBCHEM_IUPAC_CAS_NAME>
(4S)-4-[[(2S)-3-(3,4-difluorophenyl)-2-[3-[[(5-methyl-3-isoxazolyl)-oxomethyl]amino]-2-oxo-1-pyridinyl]-1-oxopropyl]amino]-5-[(3S)-2-oxo-3-pyrrolidinyl]-2-pentenoic acid cyclohexyl ester

> <PUBCHEM_IUPAC_NAME_MARKUP>
cyclohexyl (4<I>S</I>)-4-[[(2<I>S</I>)-3-(3,4-difluorophenyl)-2-[3-[(5-methyl-1,2-oxazole-3-carbonyl)amino]-2-oxopyridin-1-yl]propanoyl]amino]-5-[(3<I>S</I>)-2-oxopyrrolidin-3-yl]pent-2-enoate

> <PUBCHEM_IUPAC_NAME>
cyclohexyl (4S)-4-[[(2S)-3-(3,4-difluorophenyl)-2-[3-[(5-methyl-1,2-oxazole-3-carbonyl)amino]-2-oxopyridin-1-yl]propanoyl]amino]-5-[(3S)-2-oxopyrrolidin-3-yl]pent-2-enoate

> <PUBCHEM_IUPAC_SYSTEMATIC_NAME>
cyclohexyl (4S)-4-[[(2S)-3-[3,4-bis(fluoranyl)phenyl]-2-[3-[(5-methyl-1,2-oxazol-3-yl)carbonylamino]-2-oxidanylidene-pyridin-1-yl]propanoyl]amino]-5-[(3S)-2-oxidanylidenepyrrolidin-3-yl]pent-2-enoate

> <PUBCHEM_IUPAC_TRADITIONAL_NAME>
(4S)-4-[[(2S)-3-(3,4-difluorophenyl)-2-[2-keto-3-[(5-methylisoxazole-3-carbonyl)amino]-1-pyridyl]propanoyl]amino]-5-[(3S)-2-ketopyrrolidin-3-yl]pent-2-enoic acid cyclohexyl ester

> <PUBCHEM_IUPAC_INCHI>
InChI=1S/C34H37F2N5O7/c1-20-16-28(40-48-20)32(44)39-27-8-5-15-41(34(27)46)29(18-21-9-11-25(35)26(36)17-21)33(45)38-23(19-22-13-14-37-31(22)43)10-12-30(42)47-24-6-3-2-4-7-24/h5,8-12,15-17,22-24,29H,2-4,6-7,13-14,18-19H2,1H3,(H,37,43)(H,38,45)(H,39,44)/t22-,23+,29-/m0/s1

> <PUBCHEM_IUPAC_INCHIKEY>
QSBDBZXLLULSKR-CTWZREHQSA-N

> <PUBCHEM_XLOGP3_AA>
3.9

> <PUBCHEM_EXACT_MASS>
665.266105

> <PUBCHEM_MOLECULAR_FORMULA>
C34H37F2N5O7

> <PUBCHEM_MOLECULAR_WEIGHT>
665.7

> <PUBCHEM_OPENEYE_CAN_SMILES>
CC1=CC(=NO1)C(=O)NC2=CC=CN(C2=O)C(CC3=CC(=C(C=C3)F)F)C(=O)NC(CC4CCNC4=O)C=CC(=O)OC5CCCCC5

> <PUBCHEM_OPENEYE_ISO_SMILES>
CC1=CC(=NO1)C(=O)NC2=CC=CN(C2=O)[C@@H](CC3=CC(=C(C=C3)F)F)C(=O)N[C@@H](C[C@@H]4CCNC4=O)C=CC(=O)OC5CCCCC5

> <PUBCHEM_CACTVS_TPSA>
160

> <PUBCHEM_MONOISOTOPIC_WEIGHT>
665.266105

> <PUBCHEM_TOTAL_CHARGE>
0

> <PUBCHEM_HEAVY_ATOM_COUNT>
48

> <PUBCHEM_ATOM_DEF_STEREO_COUNT>
3

> <PUBCHEM_ATOM_UDEF_STEREO_COUNT>
0

> <PUBCHEM_BOND_DEF_STEREO_COUNT>
0

> <PUBCHEM_BOND_UDEF_STEREO_COUNT>
1

> <PUBCHEM_ISOTOPIC_ATOM_COUNT>
0

> <PUBCHEM_COMPONENT_COUNT>
1

> <PUBCHEM_CACTVS_TAUTO_COUNT>
-1

> <PUBCHEM_COORDINATE_TYPE>
1
5
255

> <PUBCHEM_BONDANNOTATIONS>
24  11  5
12  34  8
12  35  8
14  45  8
15  17  5
27  30  1
28  29  6
33  37  8
33  38  8
34  36  8
35  39  8
36  40  8
37  41  8
38  42  8
39  40  8
41  43  8
42  43  8
45  46  8
46  47  8
9  14  8
9  47  8

$$$$
91591182
  -OEChem-02212016592D

 88 92  0     1  0  0  0  0  0999 V2000
    9.8479   -4.4589    0.0000 F   0  0  0  0  0  0  0  0  0  0  0  0
   11.8479   -4.4589    0.0000 F   0  0  0  0  0  0  0  0  0  0  0  0
    5.3479    3.3354    0.0000 O   0  0  0  0  0  0  0  0  0  0  0  0
   10.1266    4.2294    0.0000 O   0  0  0  0  0  0  0  0  0  0  0  0
    7.3479   -0.1287    0.0000 O   0  0  0  0  0  0  0  0  0  0  0  0
    5.3479    1.6033    0.0000 O   0  0  0  0  0  0  0  0  0  0  0  0
    6.8479   -0.9948    0.0000 O   0  0  0  0  0  0  0  0  0  0  0  0
    5.8479   -4.4589    0.0000 O   0  0  0  0  0  0  0  0  0  0  0  0
    2.8090   -4.0928    0.0000 O   0  0  0  0  0  0  0  0  0  0  0  0
   11.3867    2.9693    0.0000 N   0  0  0  0  0  0  0  0  0  0  0  0
    8.8479    0.7373    0.0000 N   0  0  0  0  0  0  0  0  0  0  0  0
    8.3479   -1.8608    0.0000 N   0  0  0  0  0  0  0  0  0  0  0  0
    5.8479   -2.7268    0.0000 N   0  0  0  0  0  0  0  0  0  0  0  0
    3.7601   -4.4018    0.0000 N   0  0  0  0  0  0  0  0  0  0  0  0
    9.8479    2.4693    0.0000 C   0  0  2  0  0  0  0  0  0  0  0  0
    8.8479    2.4693    0.0000 C   0  0  0  0  0  0  0  0  0  0  0  0
   10.4356    1.6603    0.0000 C   0  0  0  0  0  0  0  0  0  0  0  0
    4.3479    3.3354    0.0000 C   0  0  0  0  0  0  0  0  0  0  0  0
    3.9140    2.4344    0.0000 C   0  0  0  0  0  0  0  0  0  0  0  0
    3.9140    4.2363    0.0000 C   0  0  0  0  0  0  0  0  0  0  0  0
    2.9390    2.2119    0.0000 C   0  0  0  0  0  0  0  0  0  0  0  0
    2.9390    4.4589    0.0000 C   0  0  0  0  0  0  0  0  0  0  0  0
    8.3479    1.6033    0.0000 C   0  0  1  0  0  0  0  0  0  0  0  0
    2.1572    2.8354    0.0000 C   0  0  0  0  0  0  0  0  0  0  0  0
    2.1572    3.8354    0.0000 C   0  0  0  0  0  0  0  0  0  0  0  0
   11.3867    1.9693    0.0000 C   0  0  0  0  0  0  0  0  0  0  0  0
   10.4356    3.2784    0.0000 C   0  0  0  0  0  0  0  0  0  0  0  0
    7.3479    1.6033    0.0000 C   0  0  0  0  0  0  0  0  0  0  0  0
    8.8479   -0.9948    0.0000 C   0  0  2  0  0  0  0  0  0  0  0  0
    8.3479   -0.1287    0.0000 C   0  0  0  0  0  0  0  0  0  0  0  0
    6.8479    2.4693    0.0000 C   0  0  0  0  0  0  0  0  0  0  0  0
    5.8479    2.4693    0.0000 C   0  0  0  0  0  0  0  0  0  0  0  0
    9.8479   -0.9948    0.0000 C   0  0  0  0  0  0  0  0  0  0  0  0
   10.3479   -1.8608    0.0000 C   0  0  0  0  0  0  0  0  0  0  0  0
    7.3479   -1.8608    0.0000 C   0  0  0  0  0  0  0  0  0  0  0  0
    8.8479   -2.7268    0.0000 C   0  0  0  0  0  0  0  0  0  0  0  0
    6.8479   -2.7268    0.0000 C   0  0  0  0  0  0  0  0  0  0  0  0
    9.8479   -2.7268    0.0000 C   0  0  0  0  0  0  0  0  0  0  0  0
   11.3479   -1.8608    0.0000 C   0  0  0  0  0  0  0  0  0  0  0  0
    8.3479   -3.5928    0.0000 C   0  0  0  0  0  0  0  0  0  0  0  0
    7.3479   -3.5928    0.0000 C   0  0  0  0  0  0  0  0  0  0  0  0
   10.3479   -3.5928    0.0000 C   0  0  0  0  0  0  0  0  0  0  0  0
   11.8479   -2.7268    0.0000 C   0  0  0  0  0  0  0  0  0  0  0  0
   11.3479   -3.5928    0.0000 C   0  0  0  0  0  0  0  0  0  0  0  0
    5.3479   -3.5928    0.0000 C   0  0  0  0  0  0  0  0  0  0  0  0
    4.3479   -3.5928    0.0000 C   0  0  0  0  0  0  0  0  0  0  0  0
    3.7601   -2.7838    0.0000 C   0  0  0  0  0  0  0  0  0  0  0  0
    2.8090   -3.0928    0.0000 C   0  0  0  0  0  0  0  0  0  0  0  0
    2.0000   -2.5051    0.0000 C   0  0  0  0  0  0  0  0  0  0  0  0
    9.5664    1.9169    0.0000 H   0  0  0  0  0  0  0  0  0  0  0  0
    8.9555    3.0799    0.0000 H   0  0  0  0  0  0  0  0  0  0  0  0
    8.2652    2.6814    0.0000 H   0  0  0  0  0  0  0  0  0  0  0  0
    9.8987    1.3503    0.0000 H   0  0  0  0  0  0  0  0  0  0  0  0
   10.6878    1.0939    0.0000 H   0  0  0  0  0  0  0  0  0  0  0  0
    4.6777    2.8104    0.0000 H   0  0  0  0  0  0  0  0  0  0  0  0
    3.9140    1.8144    0.0000 H   0  0  0  0  0  0  0  0  0  0  0  0
    4.5184    2.2964    0.0000 H   0  0  0  0  0  0  0  0  0  0  0  0
    4.5184    4.3743    0.0000 H   0  0  0  0  0  0  0  0  0  0  0  0
    3.9140    4.8563    0.0000 H   0  0  0  0  0  0  0  0  0  0  0  0
    2.4543    1.8253    0.0000 H   0  0  0  0  0  0  0  0  0  0  0  0
    3.2081    1.6533    0.0000 H   0  0  0  0  0  0  0  0  0  0  0  0
    3.2081    5.0175    0.0000 H   0  0  0  0  0  0  0  0  0  0  0  0
    2.4543    4.8454    0.0000 H   0  0  0  0  0  0  0  0  0  0  0  0
    8.0379    1.0664    0.0000 H   0  0  0  0  0  0  0  0  0  0  0  0
    1.5528    2.9733    0.0000 H   0  0  0  0  0  0  0  0  0  0  0  0
    1.8882    2.2768    0.0000 H   0  0  0  0  0  0  0  0  0  0  0  0
    1.8882    4.3940    0.0000 H   0  0  0  0  0  0  0  0  0  0  0  0
    1.5528    3.6974    0.0000 H   0  0  0  0  0  0  0  0  0  0  0  0
   11.5156    1.3629    0.0000 H   0  0  0  0  0  0  0  0  0  0  0  0
   12.0033    2.0342    0.0000 H   0  0  0  0  0  0  0  0  0  0  0  0
   11.8883    3.3338    0.0000 H   0  0  0  0  0  0  0  0  0  0  0  0
    9.4679    0.7373    0.0000 H   0  0  0  0  0  0  0  0  0  0  0  0
    7.0379    1.0664    0.0000 H   0  0  0  0  0  0  0  0  0  0  0  0
    8.2279   -0.9948    0.0000 H   0  0  0  0  0  0  0  0  0  0  0  0
    7.1579    3.0063    0.0000 H   0  0  0  0  0  0  0  0  0  0  0  0
   10.4305   -0.7827    0.0000 H   0  0  0  0  0  0  0  0  0  0  0  0
    9.7402   -0.3842    0.0000 H   0  0  0  0  0  0  0  0  0  0  0  0
    9.4679   -2.7268    0.0000 H   0  0  0  0  0  0  0  0  0  0  0  0
    9.2279   -2.7268    0.0000 H   0  0  0  0  0  0  0  0  0  0  0  0
   11.6579   -1.3238    0.0000 H   0  0  0  0  0  0  0  0  0  0  0  0
    8.6579   -4.1298    0.0000 H   0  0  0  0  0  0  0  0  0  0  0  0
    7.0379   -4.1298    0.0000 H   0  0  0  0  0  0  0  0  0  0  0  0
   12.4679   -2.7268    0.0000 H   0  0  0  0  0  0  0  0  0  0  0  0
    5.5379   -2.1899    0.0000 H   0  0  0  0  0  0  0  0  0  0  0  0
    3.9517   -2.1942    0.0000 H   0  0  0  0  0  0  0  0  0  0  0  0
    2.3644   -2.0035    0.0000 H   0  0  0  0  0  0  0  0  0  0  0  0
    1.4984   -2.1406    0.0000 H   0  0  0  0  0  0  0  0  0  0  0  0
    1.6356   -3.0066    0.0000 H   0  0  0  0  0  0  0  0  0  0  0  0
  1 42  1  0  0  0  0
  2 44  1  0  0  0  0
  3 18  1  0  0  0  0
  3 32  1  0  0  0  0
  4 27  2  0  0  0  0
  5 30  2  0  0  0  0
  6 32  2  0  0  0  0
  7 35  2  0  0  0  0
  8 45  2  0  0  0  0
  9 14  1  0  0  0  0
  9 48  1  0  0  0  0
 10 26  1  0  0  0  0
 10 27  1  0  0  0  0
 10 71  1  0  0  0  0
 23 11  1  6  0  0  0
 11 30  1  0  0  0  0
 11 72  1  0  0  0  0
 12 29  1  0  0  0  0
 12 35  1  0  0  0  0
 12 36  1  0  0  0  0
 13 37  1  0  0  0  0
 13 45  1  0  0  0  0
 13 84  1  0  0  0  0
 14 46  2  0  0  0  0
 15 16  1  1  0  0  0
 15 17  1  0  0  0  0
 15 27  1  0  0  0  0
 15 50  1  0  0  0  0
 16 23  1  0  0  0  0
 16 51  1  0  0  0  0
 16 52  1  0  0  0  0
 17 26  1  0  0  0  0
 17 53  1  0  0  0  0
 17 54  1  0  0  0  0
 18 19  1  0  0  0  0
 18 20  1  0  0  0  0
 18 55  1  0  0  0  0
 19 21  1  0  0  0  0
 19 56  1  0  0  0  0
 19 57  1  0  0  0  0
 20 22  1  0  0  0  0
 20 58  1  0  0  0  0
 20 59  1  0  0  0  0
 21 24  1  0  0  0  0
 21 60  1  0  0  0  0
 21 61  1  0  0  0  0
 22 25  1  0  0  0  0
 22 62  1  0  0  0  0
 22 63  1  0  0  0  0
 23 28  1  0  0  0  0
 23 64  1  0  0  0  0
 24 25  1  0  0  0  0
 24 65  1  0  0  0  0
 24 66  1  0  0  0  0
 25 67  1  0  0  0  0
 25 68  1  0  0  0  0
 26 69  1  0  0  0  0
 26 70  1  0  0  0  0
 28 31  2  3  0  0  0
 28 73  1  0  0  0  0
 29 30  1  6  0  0  0
 29 33  1  0  0  0  0
 29 74  1  0  0  0  0
 31 32  1  0  0  0  0
 31 75  1  0  0  0  0
 33 34  1  0  0  0  0
 33 76  1  0  0  0  0
 33 77  1  0  0  0  0
 34 38  2  0  0  0  0
 34 39  1  0  0  0  0
 35 37  1  0  0  0  0
 36 40  2  0  0  0  0
 36 78  1  0  0  0  0
 37 41  2  0  0  0  0
 38 42  1  0  0  0  0
 38 79  1  0  0  0  0
 39 43  2  0  0  0  0
 39 80  1  0  0  0  0
 40 41  1  0  0  0  0
 40 81  1  0  0  0  0
 41 82  1  0  0  0  0
 42 44  2  0  0  0  0
 43 44  1  0  0  0  0
 43 83  1  0  0  0  0
 45 46  1  0  0  0  0
 46 47  1  0  0  0  0
 47 48  2  0  0  0  0
 47 85  1  0  0  0  0
 48 49  1  0  0  0  0
 49 86  1  0  0  0  0
 49 87  1  0  0  0  0
 49 88  1  0  0  0  0
M  END
> <PUBCHEM_COMPOUND_CID>
91591182

> <PUBCHEM_COMPOUND_CANONICALIZED>
1

> <PUBCHEM_CACTVS_COMPLEXITY>
1320

> <PUBCHEM_CACTVS_HBOND_ACCEPTOR>
10

> <PUBCHEM_CACTVS_HBOND_DONOR>
3

> <PUBCHEM_CACTVS_ROTATABLE_BOND>
13

> <PUBCHEM_CACTVS_SUBSKEYS>
AAADcfB/uYAAAAAAAAAAAAAAAAAAAWLAAAAwQAAABgAAAAABwAAAHwAUAAAADTzhng4yjJPQBACpA6X2WgCCAAAmIgAomKG+bNoIZjqAtbOWMYhmlhiI6ce/yKCOAAAAAAAAAAAAAAAAAAAAAAAAAAAAAA==

> <PUBCHEM_IUPAC_OPENEYE_NAME>
cycloheptyl (4S)-4-[[(2S)-3-(3,4-difluorophenyl)-2-[3-[(5-methylisoxazole-3-carbonyl)amino]-2-oxo-1-pyridyl]propanoyl]amino]-5-[(3S)-2-oxopyrrolidin-3-yl]pent-2-enoate

> <PUBCHEM_IUPAC_CAS_NAME>
(4S)-4-[[(2S)-3-(3,4-difluorophenyl)-2-[3-[[(5-methyl-3-isoxazolyl)-oxomethyl]amino]-2-oxo-1-pyridinyl]-1-oxopropyl]amino]-5-[(3S)-2-oxo-3-pyrrolidinyl]-2-pentenoic acid cycloheptyl ester

> <PUBCHEM_IUPAC_NAME_MARKUP>
cycloheptyl (4<I>S</I>)-4-[[(2<I>S</I>)-3-(3,4-difluorophenyl)-2-[3-[(5-methyl-1,2-oxazole-3-carbonyl)amino]-2-oxopyridin-1-yl]propanoyl]amino]-5-[(3<I>S</I>)-2-oxopyrrolidin-3-yl]pent-2-enoate

> <PUBCHEM_IUPAC_NAME>
cycloheptyl (4S)-4-[[(2S)-3-(3,4-difluorophenyl)-2-[3-[(5-methyl-1,2-oxazole-3-carbonyl)amino]-2-oxopyridin-1-yl]propanoyl]amino]-5-[(3S)-2-oxopyrrolidin-3-yl]pent-2-enoate

> <PUBCHEM_IUPAC_SYSTEMATIC_NAME>
cycloheptyl (4S)-4-[[(2S)-3-[3,4-bis(fluoranyl)phenyl]-2-[3-[(5-methyl-1,2-oxazol-3-yl)carbonylamino]-2-oxidanylidene-pyridin-1-yl]propanoyl]amino]-5-[(3S)-2-oxidanylidenepyrrolidin-3-yl]pent-2-enoate

> <PUBCHEM_IUPAC_TRADITIONAL_NAME>
(4S)-4-[[(2S)-3-(3,4-difluorophenyl)-2-[2-keto-3-[(5-methylisoxazole-3-carbonyl)amino]-1-pyridyl]propanoyl]amino]-5-[(3S)-2-ketopyrrolidin-3-yl]pent-2-enoic acid cycloheptyl ester

> <PUBCHEM_IUPAC_INCHI>
InChI=1S/C35H39F2N5O7/c1-21-17-29(41-49-21)33(45)40-28-9-6-16-42(35(28)47)30(19-22-10-12-26(36)27(37)18-22)34(46)39-24(20-23-14-15-38-32(23)44)11-13-31(43)48-25-7-4-2-3-5-8-25/h6,9-13,16-18,23-25,30H,2-5,7-8,14-15,19-20H2,1H3,(H,38,44)(H,39,46)(H,40,45)/t23-,24+,30-/m0/s1

> <PUBCHEM_IUPAC_INCHIKEY>
RXSDMHXLCSXVNK-BBANNHEPSA-N

> <PUBCHEM_XLOGP3_AA>
4.5

> <PUBCHEM_EXACT_MASS>
679.281755

> <PUBCHEM_MOLECULAR_FORMULA>
C35H39F2N5O7

> <PUBCHEM_MOLECULAR_WEIGHT>
679.7

> <PUBCHEM_OPENEYE_CAN_SMILES>
CC1=CC(=NO1)C(=O)NC2=CC=CN(C2=O)C(CC3=CC(=C(C=C3)F)F)C(=O)NC(CC4CCNC4=O)C=CC(=O)OC5CCCCCC5

> <PUBCHEM_OPENEYE_ISO_SMILES>
CC1=CC(=NO1)C(=O)NC2=CC=CN(C2=O)[C@@H](CC3=CC(=C(C=C3)F)F)C(=O)N[C@@H](C[C@@H]4CCNC4=O)C=CC(=O)OC5CCCCCC5

> <PUBCHEM_CACTVS_TPSA>
160

> <PUBCHEM_MONOISOTOPIC_WEIGHT>
679.281755

> <PUBCHEM_TOTAL_CHARGE>
0

> <PUBCHEM_HEAVY_ATOM_COUNT>
49

> <PUBCHEM_ATOM_DEF_STEREO_COUNT>
3

> <PUBCHEM_ATOM_UDEF_STEREO_COUNT>
0

> <PUBCHEM_BOND_DEF_STEREO_COUNT>
0

> <PUBCHEM_BOND_UDEF_STEREO_COUNT>
1

> <PUBCHEM_ISOTOPIC_ATOM_COUNT>
0

> <PUBCHEM_COMPONENT_COUNT>
1

> <PUBCHEM_CACTVS_TAUTO_COUNT>
-1

> <PUBCHEM_COORDINATE_TYPE>
1
5
255

> <PUBCHEM_BONDANNOTATIONS>
23  11  6
12  35  8
12  36  8
14  46  8
15  16  5
28  31  1
29  30  6
34  38  8
34  39  8
35  37  8
36  40  8
37  41  8
38  42  8
39  43  8
40  41  8
42  44  8
43  44  8
46  47  8
47  48  8
9  14  8
9  48  8

$$$$
95147978
  -OEChem-02212016592D

 49 51  0     1  0  0  0  0  0999 V2000
    6.6804    1.9844    0.0000 O   0  0  0  0  0  0  0  0  0  0  0  0
    3.7320   -2.7589    0.0000 O   0  0  0  0  0  0  0  0  0  0  0  0
    4.1964    4.2049    0.0000 O   0  0  0  0  0  0  0  0  0  0  0  0
    2.8660   -1.2589    0.0000 O   0  0  0  0  0  0  0  0  0  0  0  0
    5.0981    1.2799    0.0000 N   0  0  0  0  0  0  0  0  0  0  0  0
    4.5981   -1.2589    0.0000 N   0  0  0  0  0  0  0  0  0  0  0  0
    4.3010    3.2104    0.0000 N   0  0  0  0  0  0  0  0  0  0  0  0
    4.5981   -0.2589    0.0000 C   0  0  1  0  0  0  0  0  0  0  0  0
    3.7891    0.3289    0.0000 C   0  0  0  0  0  0  0  0  0  0  0  0
    5.4071    0.3289    0.0000 C   0  0  0  0  0  0  0  0  0  0  0  0
    4.0981    1.2799    0.0000 C   0  0  0  0  0  0  0  0  0  0  0  0
    5.6859    2.0889    0.0000 C   0  0  0  0  0  0  0  0  0  0  0  0
    5.2791    3.0025    0.0000 C   0  0  0  0  0  0  0  0  0  0  0  0
    3.7320   -1.7589    0.0000 C   0  0  0  0  0  0  0  0  0  0  0  0
    5.7791    3.8685    0.0000 C   0  0  0  0  0  0  0  0  0  0  0  0
    5.1100    4.6116    0.0000 C   0  0  0  0  0  0  0  0  0  0  0  0
    5.3179    5.5898    0.0000 C   0  0  0  0  0  0  0  0  0  0  0  0
    4.5748    6.2589    0.0000 C   0  0  0  0  0  0  0  0  0  0  0  0
    6.2690    5.8988    0.0000 C   0  0  0  0  0  0  0  0  0  0  0  0
    2.8660   -3.2589    0.0000 C   0  0  0  0  0  0  0  0  0  0  0  0
    2.8660   -4.2589    0.0000 C   0  0  0  0  0  0  0  0  0  0  0  0
    2.0000   -4.7589    0.0000 C   0  0  0  0  0  0  0  0  0  0  0  0
    3.7320   -4.7589    0.0000 C   0  0  0  0  0  0  0  0  0  0  0  0
    2.0000   -5.7589    0.0000 C   0  0  0  0  0  0  0  0  0  0  0  0
    3.7320   -5.7589    0.0000 C   0  0  0  0  0  0  0  0  0  0  0  0
    2.8660   -6.2589    0.0000 C   0  0  0  0  0  0  0  0  0  0  0  0
    5.1505   -0.5404    0.0000 H   0  0  0  0  0  0  0  0  0  0  0  0
    3.2227    0.5810    0.0000 H   0  0  0  0  0  0  0  0  0  0  0  0
    3.4791   -0.2081    0.0000 H   0  0  0  0  0  0  0  0  0  0  0  0
    5.7171   -0.2081    0.0000 H   0  0  0  0  0  0  0  0  0  0  0  0
    5.9735    0.5810    0.0000 H   0  0  0  0  0  0  0  0  0  0  0  0
    4.1629    1.8965    0.0000 H   0  0  0  0  0  0  0  0  0  0  0  0
    3.4916    1.4088    0.0000 H   0  0  0  0  0  0  0  0  0  0  0  0
    5.1350   -1.5689    0.0000 H   0  0  0  0  0  0  0  0  0  0  0  0
    6.3957    3.9333    0.0000 H   0  0  0  0  0  0  0  0  0  0  0  0
    4.7282    5.3982    0.0000 H   0  0  0  0  0  0  0  0  0  0  0  0
    4.9896    6.7197    0.0000 H   0  0  0  0  0  0  0  0  0  0  0  0
    4.1140    6.6738    0.0000 H   0  0  0  0  0  0  0  0  0  0  0  0
    4.1599    5.7982    0.0000 H   0  0  0  0  0  0  0  0  0  0  0  0
    6.4605    5.3092    0.0000 H   0  0  0  0  0  0  0  0  0  0  0  0
    6.8586    6.0904    0.0000 H   0  0  0  0  0  0  0  0  0  0  0  0
    6.0774    6.4885    0.0000 H   0  0  0  0  0  0  0  0  0  0  0  0
    2.6540   -2.6763    0.0000 H   0  0  0  0  0  0  0  0  0  0  0  0
    2.2554   -3.3666    0.0000 H   0  0  0  0  0  0  0  0  0  0  0  0
    1.4631   -4.4489    0.0000 H   0  0  0  0  0  0  0  0  0  0  0  0
    4.2690   -4.4489    0.0000 H   0  0  0  0  0  0  0  0  0  0  0  0
    1.4631   -6.0689    0.0000 H   0  0  0  0  0  0  0  0  0  0  0  0
    4.2690   -6.0689    0.0000 H   0  0  0  0  0  0  0  0  0  0  0  0
    2.8660   -6.8789    0.0000 H   0  0  0  0  0  0  0  0  0  0  0  0
  1 12  2  0  0  0  0
  2 14  1  0  0  0  0
  2 20  1  0  0  0  0
  3  7  1  0  0  0  0
  3 16  1  0  0  0  0
  4 14  2  0  0  0  0
  5 10  1  0  0  0  0
  5 11  1  0  0  0  0
  5 12  1  0  0  0  0
  8  6  1  1  0  0  0
  6 14  1  0  0  0  0
  6 34  1  0  0  0  0
  7 13  2  0  0  0  0
  8  9  1  0  0  0  0
  8 10  1  0  0  0  0
  8 27  1  0  0  0  0
  9 11  1  0  0  0  0
  9 28  1  0  0  0  0
  9 29  1  0  0  0  0
 10 30  1  0  0  0  0
 10 31  1  0  0  0  0
 11 32  1  0  0  0  0
 11 33  1  0  0  0  0
 12 13  1  0  0  0  0
 13 15  1  0  0  0  0
 15 16  2  0  0  0  0
 15 35  1  0  0  0  0
 16 17  1  0  0  0  0
 17 18  1  0  0  0  0
 17 19  1  0  0  0  0
 17 36  1  0  0  0  0
 18 37  1  0  0  0  0
 18 38  1  0  0  0  0
 18 39  1  0  0  0  0
 19 40  1  0  0  0  0
 19 41  1  0  0  0  0
 19 42  1  0  0  0  0
 20 21  1  0  0  0  0
 20 43  1  0  0  0  0
 20 44  1  0  0  0  0
 21 22  2  0  0  0  0
 21 23  1  0  0  0  0
 22 24  1  0  0  0  0
 22 45  1  0  0  0  0
 23 25  2  0  0  0  0
 23 46  1  0  0  0  0
 24 26  2  0  0  0  0
 24 47  1  0  0  0  0
 25 26  1  0  0  0  0
 25 48  1  0  0  0  0
 26 49  1  0  0  0  0
M  END
> <PUBCHEM_COMPOUND_CID>
95147978

> <PUBCHEM_COMPOUND_CANONICALIZED>
1

> <PUBCHEM_CACTVS_COMPLEXITY>
493

> <PUBCHEM_CACTVS_HBOND_ACCEPTOR>
5

> <PUBCHEM_CACTVS_HBOND_DONOR>
1

> <PUBCHEM_CACTVS_ROTATABLE_BOND>
6

> <PUBCHEM_CACTVS_SUBSKEYS>
AAADceB7OAAAAAAAAAAAAAAAAAAAAWLAAAAwAAAAAAAAAAABwAAAHgAUAAAADSzhngYyjJPQBACpA6VyWgCCAAAmIgAomKG+bNsIZjqA9ZucMYhm1hmI6ce/yCAOAAAAAAAAAAAAAAAAAAAAAAAAAAAAAA==

> <PUBCHEM_IUPAC_OPENEYE_NAME>
benzyl N-[(3S)-1-(5-isopropylisoxazole-3-carbonyl)pyrrolidin-3-yl]carbamate

> <PUBCHEM_IUPAC_CAS_NAME>
N-[(3S)-1-[oxo-(5-propan-2-yl-3-isoxazolyl)methyl]-3-pyrrolidinyl]carbamic acid (phenylmethyl) ester

> <PUBCHEM_IUPAC_NAME_MARKUP>
benzyl <I>N</I>-[(3<I>S</I>)-1-(5-propan-2-yl-1,2-oxazole-3-carbonyl)pyrrolidin-3-yl]carbamate

> <PUBCHEM_IUPAC_NAME>
benzyl N-[(3S)-1-(5-propan-2-yl-1,2-oxazole-3-carbonyl)pyrrolidin-3-yl]carbamate

> <PUBCHEM_IUPAC_SYSTEMATIC_NAME>
(phenylmethyl) N-[(3S)-1-[(5-propan-2-yl-1,2-oxazol-3-yl)carbonyl]pyrrolidin-3-yl]carbamate

> <PUBCHEM_IUPAC_TRADITIONAL_NAME>
N-[(3S)-1-(5-isopropylisoxazole-3-carbonyl)pyrrolidin-3-yl]carbamic acid benzyl ester

> <PUBCHEM_IUPAC_INCHI>
InChI=1S/C19H23N3O4/c1-13(2)17-10-16(21-26-17)18(23)22-9-8-15(11-22)20-19(24)25-12-14-6-4-3-5-7-14/h3-7,10,13,15H,8-9,11-12H2,1-2H3,(H,20,24)/t15-/m0/s1

> <PUBCHEM_IUPAC_INCHIKEY>
PRUKLNWDRCXNLW-HNNXBMFYSA-N

> <PUBCHEM_XLOGP3_AA>
2.7

> <PUBCHEM_EXACT_MASS>
357.168856

> <PUBCHEM_MOLECULAR_FORMULA>
C19H23N3O4

> <PUBCHEM_MOLECULAR_WEIGHT>
357.4

> <PUBCHEM_OPENEYE_CAN_SMILES>
CC(C)C1=CC(=NO1)C(=O)N2CCC(C2)NC(=O)OCC3=CC=CC=C3

> <PUBCHEM_OPENEYE_ISO_SMILES>
CC(C)C1=CC(=NO1)C(=O)N2CC[C@@H](C2)NC(=O)OCC3=CC=CC=C3

> <PUBCHEM_CACTVS_TPSA>
84.7

> <PUBCHEM_MONOISOTOPIC_WEIGHT>
357.168856

> <PUBCHEM_TOTAL_CHARGE>
0

> <PUBCHEM_HEAVY_ATOM_COUNT>
26

> <PUBCHEM_ATOM_DEF_STEREO_COUNT>
1

> <PUBCHEM_ATOM_UDEF_STEREO_COUNT>
0

> <PUBCHEM_BOND_DEF_STEREO_COUNT>
0

> <PUBCHEM_BOND_UDEF_STEREO_COUNT>
0

> <PUBCHEM_ISOTOPIC_ATOM_COUNT>
0

> <PUBCHEM_COMPONENT_COUNT>
1

> <PUBCHEM_CACTVS_TAUTO_COUNT>
-1

> <PUBCHEM_COORDINATE_TYPE>
1
5
255

> <PUBCHEM_BONDANNOTATIONS>
13  15  8
15  16  8
21  22  8
21  23  8
22  24  8
23  25  8
24  26  8
25  26  8
3  16  8
3  7  8
8  6  5
7  13  8

$$$$
95147980
  -OEChem-02212016592D

 49 51  0     1  0  0  0  0  0999 V2000
    6.6804    1.9844    0.0000 O   0  0  0  0  0  0  0  0  0  0  0  0
    3.7320   -2.7589    0.0000 O   0  0  0  0  0  0  0  0  0  0  0  0
    4.1964    4.2049    0.0000 O   0  0  0  0  0  0  0  0  0  0  0  0
    2.8660   -1.2589    0.0000 O   0  0  0  0  0  0  0  0  0  0  0  0
    5.0981    1.2799    0.0000 N   0  0  0  0  0  0  0  0  0  0  0  0
    4.5981   -1.2589    0.0000 N   0  0  0  0  0  0  0  0  0  0  0  0
    4.3010    3.2104    0.0000 N   0  0  0  0  0  0  0  0  0  0  0  0
    4.5981   -0.2589    0.0000 C   0  0  2  0  0  0  0  0  0  0  0  0
    3.7891    0.3289    0.0000 C   0  0  0  0  0  0  0  0  0  0  0  0
    5.4071    0.3289    0.0000 C   0  0  0  0  0  0  0  0  0  0  0  0
    4.0981    1.2799    0.0000 C   0  0  0  0  0  0  0  0  0  0  0  0
    5.6859    2.0889    0.0000 C   0  0  0  0  0  0  0  0  0  0  0  0
    5.2791    3.0025    0.0000 C   0  0  0  0  0  0  0  0  0  0  0  0
    3.7320   -1.7589    0.0000 C   0  0  0  0  0  0  0  0  0  0  0  0
    5.7791    3.8685    0.0000 C   0  0  0  0  0  0  0  0  0  0  0  0
    5.1100    4.6116    0.0000 C   0  0  0  0  0  0  0  0  0  0  0  0
    5.3179    5.5898    0.0000 C   0  0  0  0  0  0  0  0  0  0  0  0
    4.5748    6.2589    0.0000 C   0  0  0  0  0  0  0  0  0  0  0  0
    6.2690    5.8988    0.0000 C   0  0  0  0  0  0  0  0  0  0  0  0
    2.8660   -3.2589    0.0000 C   0  0  0  0  0  0  0  0  0  0  0  0
    2.8660   -4.2589    0.0000 C   0  0  0  0  0  0  0  0  0  0  0  0
    2.0000   -4.7589    0.0000 C   0  0  0  0  0  0  0  0  0  0  0  0
    3.7320   -4.7589    0.0000 C   0  0  0  0  0  0  0  0  0  0  0  0
    2.0000   -5.7589    0.0000 C   0  0  0  0  0  0  0  0  0  0  0  0
    3.7320   -5.7589    0.0000 C   0  0  0  0  0  0  0  0  0  0  0  0
    2.8660   -6.2589    0.0000 C   0  0  0  0  0  0  0  0  0  0  0  0
    5.1505   -0.5404    0.0000 H   0  0  0  0  0  0  0  0  0  0  0  0
    3.2227    0.5810    0.0000 H   0  0  0  0  0  0  0  0  0  0  0  0
    3.4791   -0.2081    0.0000 H   0  0  0  0  0  0  0  0  0  0  0  0
    5.7171   -0.2081    0.0000 H   0  0  0  0  0  0  0  0  0  0  0  0
    5.9735    0.5810    0.0000 H   0  0  0  0  0  0  0  0  0  0  0  0
    4.1629    1.8965    0.0000 H   0  0  0  0  0  0  0  0  0  0  0  0
    3.4916    1.4088    0.0000 H   0  0  0  0  0  0  0  0  0  0  0  0
    5.1350   -1.5689    0.0000 H   0  0  0  0  0  0  0  0  0  0  0  0
    6.3957    3.9333    0.0000 H   0  0  0  0  0  0  0  0  0  0  0  0
    4.7282    5.3982    0.0000 H   0  0  0  0  0  0  0  0  0  0  0  0
    4.9896    6.7197    0.0000 H   0  0  0  0  0  0  0  0  0  0  0  0
    4.1140    6.6738    0.0000 H   0  0  0  0  0  0  0  0  0  0  0  0
    4.1599    5.7982    0.0000 H   0  0  0  0  0  0  0  0  0  0  0  0
    6.4605    5.3092    0.0000 H   0  0  0  0  0  0  0  0  0  0  0  0
    6.8586    6.0904    0.0000 H   0  0  0  0  0  0  0  0  0  0  0  0
    6.0774    6.4885    0.0000 H   0  0  0  0  0  0  0  0  0  0  0  0
    2.6540   -2.6763    0.0000 H   0  0  0  0  0  0  0  0  0  0  0  0
    2.2554   -3.3666    0.0000 H   0  0  0  0  0  0  0  0  0  0  0  0
    1.4631   -4.4489    0.0000 H   0  0  0  0  0  0  0  0  0  0  0  0
    4.2690   -4.4489    0.0000 H   0  0  0  0  0  0  0  0  0  0  0  0
    1.4631   -6.0689    0.0000 H   0  0  0  0  0  0  0  0  0  0  0  0
    4.2690   -6.0689    0.0000 H   0  0  0  0  0  0  0  0  0  0  0  0
    2.8660   -6.8789    0.0000 H   0  0  0  0  0  0  0  0  0  0  0  0
  1 12  2  0  0  0  0
  2 14  1  0  0  0  0
  2 20  1  0  0  0  0
  3  7  1  0  0  0  0
  3 16  1  0  0  0  0
  4 14  2  0  0  0  0
  5 10  1  0  0  0  0
  5 11  1  0  0  0  0
  5 12  1  0  0  0  0
  8  6  1  6  0  0  0
  6 14  1  0  0  0  0
  6 34  1  0  0  0  0
  7 13  2  0  0  0  0
  8  9  1  0  0  0  0
  8 10  1  0  0  0  0
  8 27  1  0  0  0  0
  9 11  1  0  0  0  0
  9 28  1  0  0  0  0
  9 29  1  0  0  0  0
 10 30  1  0  0  0  0
 10 31  1  0  0  0  0
 11 32  1  0  0  0  0
 11 33  1  0  0  0  0
 12 13  1  0  0  0  0
 13 15  1  0  0  0  0
 15 16  2  0  0  0  0
 15 35  1  0  0  0  0
 16 17  1  0  0  0  0
 17 18  1  0  0  0  0
 17 19  1  0  0  0  0
 17 36  1  0  0  0  0
 18 37  1  0  0  0  0
 18 38  1  0  0  0  0
 18 39  1  0  0  0  0
 19 40  1  0  0  0  0
 19 41  1  0  0  0  0
 19 42  1  0  0  0  0
 20 21  1  0  0  0  0
 20 43  1  0  0  0  0
 20 44  1  0  0  0  0
 21 22  2  0  0  0  0
 21 23  1  0  0  0  0
 22 24  1  0  0  0  0
 22 45  1  0  0  0  0
 23 25  2  0  0  0  0
 23 46  1  0  0  0  0
 24 26  2  0  0  0  0
 24 47  1  0  0  0  0
 25 26  1  0  0  0  0
 25 48  1  0  0  0  0
 26 49  1  0  0  0  0
M  END
> <PUBCHEM_COMPOUND_CID>
95147980

> <PUBCHEM_COMPOUND_CANONICALIZED>
1

> <PUBCHEM_CACTVS_COMPLEXITY>
493

> <PUBCHEM_CACTVS_HBOND_ACCEPTOR>
5

> <PUBCHEM_CACTVS_HBOND_DONOR>
1

> <PUBCHEM_CACTVS_ROTATABLE_BOND>
6

> <PUBCHEM_CACTVS_SUBSKEYS>
AAADceB7OAAAAAAAAAAAAAAAAAAAAWLAAAAwAAAAAAAAAAABwAAAHgAUAAAADSzhngYyjJPQBACpA6VyWgCCAAAmIgAomKG+bNsIZjqA9ZucMYhm1hmI6ce/yCAOAAAAAAAAAAAAAAAAAAAAAAAAAAAAAA==

> <PUBCHEM_IUPAC_OPENEYE_NAME>
benzyl N-[(3R)-1-(5-isopropylisoxazole-3-carbonyl)pyrrolidin-3-yl]carbamate

> <PUBCHEM_IUPAC_CAS_NAME>
N-[(3R)-1-[oxo-(5-propan-2-yl-3-isoxazolyl)methyl]-3-pyrrolidinyl]carbamic acid (phenylmethyl) ester

> <PUBCHEM_IUPAC_NAME_MARKUP>
benzyl <I>N</I>-[(3<I>R</I>)-1-(5-propan-2-yl-1,2-oxazole-3-carbonyl)pyrrolidin-3-yl]carbamate

> <PUBCHEM_IUPAC_NAME>
benzyl N-[(3R)-1-(5-propan-2-yl-1,2-oxazole-3-carbonyl)pyrrolidin-3-yl]carbamate

> <PUBCHEM_IUPAC_SYSTEMATIC_NAME>
(phenylmethyl) N-[(3R)-1-[(5-propan-2-yl-1,2-oxazol-3-yl)carbonyl]pyrrolidin-3-yl]carbamate

> <PUBCHEM_IUPAC_TRADITIONAL_NAME>
N-[(3R)-1-(5-isopropylisoxazole-3-carbonyl)pyrrolidin-3-yl]carbamic acid benzyl ester

> <PUBCHEM_IUPAC_INCHI>
InChI=1S/C19H23N3O4/c1-13(2)17-10-16(21-26-17)18(23)22-9-8-15(11-22)20-19(24)25-12-14-6-4-3-5-7-14/h3-7,10,13,15H,8-9,11-12H2,1-2H3,(H,20,24)/t15-/m1/s1

> <PUBCHEM_IUPAC_INCHIKEY>
PRUKLNWDRCXNLW-OAHLLOKOSA-N

> <PUBCHEM_XLOGP3_AA>
2.7

> <PUBCHEM_EXACT_MASS>
357.168856

> <PUBCHEM_MOLECULAR_FORMULA>
C19H23N3O4

> <PUBCHEM_MOLECULAR_WEIGHT>
357.4

> <PUBCHEM_OPENEYE_CAN_SMILES>
CC(C)C1=CC(=NO1)C(=O)N2CCC(C2)NC(=O)OCC3=CC=CC=C3

> <PUBCHEM_OPENEYE_ISO_SMILES>
CC(C)C1=CC(=NO1)C(=O)N2CC[C@H](C2)NC(=O)OCC3=CC=CC=C3

> <PUBCHEM_CACTVS_TPSA>
84.7

> <PUBCHEM_MONOISOTOPIC_WEIGHT>
357.168856

> <PUBCHEM_TOTAL_CHARGE>
0

> <PUBCHEM_HEAVY_ATOM_COUNT>
26

> <PUBCHEM_ATOM_DEF_STEREO_COUNT>
1

> <PUBCHEM_ATOM_UDEF_STEREO_COUNT>
0

> <PUBCHEM_BOND_DEF_STEREO_COUNT>
0

> <PUBCHEM_BOND_UDEF_STEREO_COUNT>
0

> <PUBCHEM_ISOTOPIC_ATOM_COUNT>
0

> <PUBCHEM_COMPONENT_COUNT>
1

> <PUBCHEM_CACTVS_TAUTO_COUNT>
-1

> <PUBCHEM_COORDINATE_TYPE>
1
5
255

> <PUBCHEM_BONDANNOTATIONS>
13  15  8
15  16  8
21  22  8
21  23  8
22  24  8
23  25  8
24  26  8
25  26  8
3  16  8
3  7  8
8  6  6
7  13  8

$$$$
97925580
  -OEChem-02212016592D

 49 51  0     1  0  0  0  0  0999 V2000
    6.5519   -2.6739    0.0000 O   0  0  0  0  0  0  0  0  0  0  0  0
    4.8198   -2.6739    0.0000 O   0  0  0  0  0  0  0  0  0  0  0  0
    2.2218    1.8261    0.0000 O   0  0  0  0  0  0  0  0  0  0  0  0
    3.5878    4.8649    0.0000 O   0  0  0  0  0  0  0  0  0  0  0  0
    5.6859   -1.1739    0.0000 N   0  0  0  0  0  0  0  0  0  0  0  0
    3.9538    1.8261    0.0000 N   0  0  0  0  0  0  0  0  0  0  0  0
    3.8968    3.9139    0.0000 N   0  0  0  0  0  0  0  0  0  0  0  0
    4.8198    0.3261    0.0000 C   0  0  2  0  0  0  0  0  0  0  0  0
    5.6859    0.8261    0.0000 C   0  0  0  0  0  0  0  0  0  0  0  0
    4.8198   -0.6739    0.0000 C   0  0  0  0  0  0  0  0  0  0  0  0
    6.5519    0.3261    0.0000 C   0  0  0  0  0  0  0  0  0  0  0  0
    6.5519   -0.6739    0.0000 C   0  0  0  0  0  0  0  0  0  0  0  0
    3.9538    0.8261    0.0000 C   0  0  0  0  0  0  0  0  0  0  0  0
    5.6859   -2.1739    0.0000 C   0  0  0  0  0  0  0  0  0  0  0  0
    3.0878    2.3261    0.0000 C   0  0  0  0  0  0  0  0  0  0  0  0
    6.5519   -3.6739    0.0000 C   0  0  0  0  0  0  0  0  0  0  0  0
    3.0878    3.3261    0.0000 C   0  0  0  0  0  0  0  0  0  0  0  0
    7.4179   -4.1739    0.0000 C   0  0  0  0  0  0  0  0  0  0  0  0
    2.2788    3.9139    0.0000 C   0  0  0  0  0  0  0  0  0  0  0  0
    2.5878    4.8649    0.0000 C   0  0  0  0  0  0  0  0  0  0  0  0
    7.4179   -5.1739    0.0000 C   0  0  0  0  0  0  0  0  0  0  0  0
    8.2839   -3.6739    0.0000 C   0  0  0  0  0  0  0  0  0  0  0  0
    8.2839   -5.6739    0.0000 C   0  0  0  0  0  0  0  0  0  0  0  0
    9.1500   -4.1739    0.0000 C   0  0  0  0  0  0  0  0  0  0  0  0
    2.0000    5.6739    0.0000 C   0  0  0  0  0  0  0  0  0  0  0  0
    9.1500   -5.1739    0.0000 C   0  0  0  0  0  0  0  0  0  0  0  0
    4.8198    0.9461    0.0000 H   0  0  0  0  0  0  0  0  0  0  0  0
    6.0844    1.3010    0.0000 H   0  0  0  0  0  0  0  0  0  0  0  0
    5.2873    1.3010    0.0000 H   0  0  0  0  0  0  0  0  0  0  0  0
    4.2093   -0.5663    0.0000 H   0  0  0  0  0  0  0  0  0  0  0  0
    4.6078   -1.2565    0.0000 H   0  0  0  0  0  0  0  0  0  0  0  0
    7.1625    0.2184    0.0000 H   0  0  0  0  0  0  0  0  0  0  0  0
    6.7639    0.9087    0.0000 H   0  0  0  0  0  0  0  0  0  0  0  0
    6.7639   -1.2565    0.0000 H   0  0  0  0  0  0  0  0  0  0  0  0
    7.1625   -0.5663    0.0000 H   0  0  0  0  0  0  0  0  0  0  0  0
    3.3432    0.9337    0.0000 H   0  0  0  0  0  0  0  0  0  0  0  0
    3.7418    0.2435    0.0000 H   0  0  0  0  0  0  0  0  0  0  0  0
    4.4908    2.1361    0.0000 H   0  0  0  0  0  0  0  0  0  0  0  0
    5.9413   -3.5663    0.0000 H   0  0  0  0  0  0  0  0  0  0  0  0
    6.3398   -4.2565    0.0000 H   0  0  0  0  0  0  0  0  0  0  0  0
    1.6891    3.7223    0.0000 H   0  0  0  0  0  0  0  0  0  0  0  0
    6.8810   -5.4839    0.0000 H   0  0  0  0  0  0  0  0  0  0  0  0
    8.2839   -3.0539    0.0000 H   0  0  0  0  0  0  0  0  0  0  0  0
    8.2839   -6.2939    0.0000 H   0  0  0  0  0  0  0  0  0  0  0  0
    9.6869   -3.8639    0.0000 H   0  0  0  0  0  0  0  0  0  0  0  0
    2.5016    6.0384    0.0000 H   0  0  0  0  0  0  0  0  0  0  0  0
    1.6356    6.1755    0.0000 H   0  0  0  0  0  0  0  0  0  0  0  0
    1.4984    5.3095    0.0000 H   0  0  0  0  0  0  0  0  0  0  0  0
    9.6869   -5.4839    0.0000 H   0  0  0  0  0  0  0  0  0  0  0  0
  1 14  1  0  0  0  0
  1 16  1  0  0  0  0
  2 14  2  0  0  0  0
  3 15  2  0  0  0  0
  4  7  1  0  0  0  0
  4 20  1  0  0  0  0
  5 10  1  0  0  0  0
  5 12  1  0  0  0  0
  5 14  1  0  0  0  0
  6 13  1  0  0  0  0
  6 15  1  0  0  0  0
  6 38  1  0  0  0  0
  7 17  2  0  0  0  0
  8  9  1  0  0  0  0
  8 10  1  0  0  0  0
  8 13  1  6  0  0  0
  8 27  1  0  0  0  0
  9 11  1  0  0  0  0
  9 28  1  0  0  0  0
  9 29  1  0  0  0  0
 10 30  1  0  0  0  0
 10 31  1  0  0  0  0
 11 12  1  0  0  0  0
 11 32  1  0  0  0  0
 11 33  1  0  0  0  0
 12 34  1  0  0  0  0
 12 35  1  0  0  0  0
 13 36  1  0  0  0  0
 13 37  1  0  0  0  0
 15 17  1  0  0  0  0
 16 18  1  0  0  0  0
 16 39  1  0  0  0  0
 16 40  1  0  0  0  0
 17 19  1  0  0  0  0
 18 21  2  0  0  0  0
 18 22  1  0  0  0  0
 19 20  2  0  0  0  0
 19 41  1  0  0  0  0
 20 25  1  0  0  0  0
 21 23  1  0  0  0  0
 21 42  1  0  0  0  0
 22 24  2  0  0  0  0
 22 43  1  0  0  0  0
 23 26  2  0  0  0  0
 23 44  1  0  0  0  0
 24 26  1  0  0  0  0
 24 45  1  0  0  0  0
 25 46  1  0  0  0  0
 25 47  1  0  0  0  0
 25 48  1  0  0  0  0
 26 49  1  0  0  0  0
M  END
> <PUBCHEM_COMPOUND_CID>
97925580

> <PUBCHEM_COMPOUND_CANONICALIZED>
1

> <PUBCHEM_CACTVS_COMPLEXITY>
481

> <PUBCHEM_CACTVS_HBOND_ACCEPTOR>
5

> <PUBCHEM_CACTVS_HBOND_DONOR>
1

> <PUBCHEM_CACTVS_ROTATABLE_BOND>
6

> <PUBCHEM_CACTVS_SUBSKEYS>
AAADceB7OAAAAAAAAAAAAAAAAAAAAWAAAAA8QAAAAAAAAAABwAAAHgAUAAAADQzhngYyjJPQBACpA6VyWgCCAAAmIgAomKG+bNoIZjqA9ZucMYhm1hmI6ce/wCAOAAAAAAAAAAAAAAAAAAAAAAAAAAAAAA==

> <PUBCHEM_IUPAC_OPENEYE_NAME>
benzyl (3S)-3-[[(5-methylisoxazole-3-carbonyl)amino]methyl]piperidine-1-carboxylate

> <PUBCHEM_IUPAC_CAS_NAME>
(3S)-3-[[[(5-methyl-3-isoxazolyl)-oxomethyl]amino]methyl]-1-piperidinecarboxylic acid (phenylmethyl) ester

> <PUBCHEM_IUPAC_NAME_MARKUP>
benzyl (3<I>S</I>)-3-[[(5-methyl-1,2-oxazole-3-carbonyl)amino]methyl]piperidine-1-carboxylate

> <PUBCHEM_IUPAC_NAME>
benzyl (3S)-3-[[(5-methyl-1,2-oxazole-3-carbonyl)amino]methyl]piperidine-1-carboxylate

> <PUBCHEM_IUPAC_SYSTEMATIC_NAME>
(phenylmethyl) (3S)-3-[[(5-methyl-1,2-oxazol-3-yl)carbonylamino]methyl]piperidine-1-carboxylate

> <PUBCHEM_IUPAC_TRADITIONAL_NAME>
(3S)-3-[[(5-methylisoxazole-3-carbonyl)amino]methyl]piperidine-1-carboxylic acid benzyl ester

> <PUBCHEM_IUPAC_INCHI>
InChI=1S/C19H23N3O4/c1-14-10-17(21-26-14)18(23)20-11-16-8-5-9-22(12-16)19(24)25-13-15-6-3-2-4-7-15/h2-4,6-7,10,16H,5,8-9,11-13H2,1H3,(H,20,23)/t16-/m0/s1

> <PUBCHEM_IUPAC_INCHIKEY>
KIGJZBYJWFBJTC-INIZCTEOSA-N

> <PUBCHEM_XLOGP3_AA>
2.5

> <PUBCHEM_EXACT_MASS>
357.168856

> <PUBCHEM_MOLECULAR_FORMULA>
C19H23N3O4

> <PUBCHEM_MOLECULAR_WEIGHT>
357.4

> <PUBCHEM_OPENEYE_CAN_SMILES>
CC1=CC(=NO1)C(=O)NCC2CCCN(C2)C(=O)OCC3=CC=CC=C3

> <PUBCHEM_OPENEYE_ISO_SMILES>
CC1=CC(=NO1)C(=O)NC[C@@H]2CCCN(C2)C(=O)OCC3=CC=CC=C3

> <PUBCHEM_CACTVS_TPSA>
84.7

> <PUBCHEM_MONOISOTOPIC_WEIGHT>
357.168856

> <PUBCHEM_TOTAL_CHARGE>
0

> <PUBCHEM_HEAVY_ATOM_COUNT>
26

> <PUBCHEM_ATOM_DEF_STEREO_COUNT>
1

> <PUBCHEM_ATOM_UDEF_STEREO_COUNT>
0

> <PUBCHEM_BOND_DEF_STEREO_COUNT>
0

> <PUBCHEM_BOND_UDEF_STEREO_COUNT>
0

> <PUBCHEM_ISOTOPIC_ATOM_COUNT>
0

> <PUBCHEM_COMPONENT_COUNT>
1

> <PUBCHEM_CACTVS_TAUTO_COUNT>
-1

> <PUBCHEM_COORDINATE_TYPE>
1
5
255

> <PUBCHEM_BONDANNOTATIONS>
17  19  8
18  21  8
18  22  8
19  20  8
21  23  8
22  24  8
23  26  8
24  26  8
4  20  8
4  7  8
7  17  8
8  13  6

$$$$
97925581
  -OEChem-02212016592D

 49 51  0     1  0  0  0  0  0999 V2000
    6.5519   -2.6739    0.0000 O   0  0  0  0  0  0  0  0  0  0  0  0
    4.8198   -2.6739    0.0000 O   0  0  0  0  0  0  0  0  0  0  0  0
    2.2218    1.8261    0.0000 O   0  0  0  0  0  0  0  0  0  0  0  0
    3.5878    4.8649    0.0000 O   0  0  0  0  0  0  0  0  0  0  0  0
    5.6859   -1.1739    0.0000 N   0  0  0  0  0  0  0  0  0  0  0  0
    3.9538    1.8261    0.0000 N   0  0  0  0  0  0  0  0  0  0  0  0
    3.8968    3.9139    0.0000 N   0  0  0  0  0  0  0  0  0  0  0  0
    4.8198    0.3261    0.0000 C   0  0  1  0  0  0  0  0  0  0  0  0
    5.6859    0.8261    0.0000 C   0  0  0  0  0  0  0  0  0  0  0  0
    4.8198   -0.6739    0.0000 C   0  0  0  0  0  0  0  0  0  0  0  0
    6.5519    0.3261    0.0000 C   0  0  0  0  0  0  0  0  0  0  0  0
    6.5519   -0.6739    0.0000 C   0  0  0  0  0  0  0  0  0  0  0  0
    3.9538    0.8261    0.0000 C   0  0  0  0  0  0  0  0  0  0  0  0
    5.6859   -2.1739    0.0000 C   0  0  0  0  0  0  0  0  0  0  0  0
    3.0878    2.3261    0.0000 C   0  0  0  0  0  0  0  0  0  0  0  0
    6.5519   -3.6739    0.0000 C   0  0  0  0  0  0  0  0  0  0  0  0
    3.0878    3.3261    0.0000 C   0  0  0  0  0  0  0  0  0  0  0  0
    7.4179   -4.1739    0.0000 C   0  0  0  0  0  0  0  0  0  0  0  0
    2.2788    3.9139    0.0000 C   0  0  0  0  0  0  0  0  0  0  0  0
    2.5878    4.8649    0.0000 C   0  0  0  0  0  0  0  0  0  0  0  0
    7.4179   -5.1739    0.0000 C   0  0  0  0  0  0  0  0  0  0  0  0
    8.2839   -3.6739    0.0000 C   0  0  0  0  0  0  0  0  0  0  0  0
    8.2839   -5.6739    0.0000 C   0  0  0  0  0  0  0  0  0  0  0  0
    9.1500   -4.1739    0.0000 C   0  0  0  0  0  0  0  0  0  0  0  0
    2.0000    5.6739    0.0000 C   0  0  0  0  0  0  0  0  0  0  0  0
    9.1500   -5.1739    0.0000 C   0  0  0  0  0  0  0  0  0  0  0  0
    4.8198    0.9461    0.0000 H   0  0  0  0  0  0  0  0  0  0  0  0
    6.0844    1.3010    0.0000 H   0  0  0  0  0  0  0  0  0  0  0  0
    5.2873    1.3010    0.0000 H   0  0  0  0  0  0  0  0  0  0  0  0
    4.2093   -0.5663    0.0000 H   0  0  0  0  0  0  0  0  0  0  0  0
    4.6078   -1.2565    0.0000 H   0  0  0  0  0  0  0  0  0  0  0  0
    7.1625    0.2184    0.0000 H   0  0  0  0  0  0  0  0  0  0  0  0
    6.7639    0.9087    0.0000 H   0  0  0  0  0  0  0  0  0  0  0  0
    6.7639   -1.2565    0.0000 H   0  0  0  0  0  0  0  0  0  0  0  0
    7.1625   -0.5663    0.0000 H   0  0  0  0  0  0  0  0  0  0  0  0
    3.3432    0.9337    0.0000 H   0  0  0  0  0  0  0  0  0  0  0  0
    3.7418    0.2435    0.0000 H   0  0  0  0  0  0  0  0  0  0  0  0
    4.4908    2.1361    0.0000 H   0  0  0  0  0  0  0  0  0  0  0  0
    5.9413   -3.5663    0.0000 H   0  0  0  0  0  0  0  0  0  0  0  0
    6.3398   -4.2565    0.0000 H   0  0  0  0  0  0  0  0  0  0  0  0
    1.6891    3.7223    0.0000 H   0  0  0  0  0  0  0  0  0  0  0  0
    6.8810   -5.4839    0.0000 H   0  0  0  0  0  0  0  0  0  0  0  0
    8.2839   -3.0539    0.0000 H   0  0  0  0  0  0  0  0  0  0  0  0
    8.2839   -6.2939    0.0000 H   0  0  0  0  0  0  0  0  0  0  0  0
    9.6869   -3.8639    0.0000 H   0  0  0  0  0  0  0  0  0  0  0  0
    2.5016    6.0384    0.0000 H   0  0  0  0  0  0  0  0  0  0  0  0
    1.6356    6.1755    0.0000 H   0  0  0  0  0  0  0  0  0  0  0  0
    1.4984    5.3095    0.0000 H   0  0  0  0  0  0  0  0  0  0  0  0
    9.6869   -5.4839    0.0000 H   0  0  0  0  0  0  0  0  0  0  0  0
  1 14  1  0  0  0  0
  1 16  1  0  0  0  0
  2 14  2  0  0  0  0
  3 15  2  0  0  0  0
  4  7  1  0  0  0  0
  4 20  1  0  0  0  0
  5 10  1  0  0  0  0
  5 12  1  0  0  0  0
  5 14  1  0  0  0  0
  6 13  1  0  0  0  0
  6 15  1  0  0  0  0
  6 38  1  0  0  0  0
  7 17  2  0  0  0  0
  8  9  1  0  0  0  0
  8 10  1  0  0  0  0
  8 13  1  1  0  0  0
  8 27  1  0  0  0  0
  9 11  1  0  0  0  0
  9 28  1  0  0  0  0
  9 29  1  0  0  0  0
 10 30  1  0  0  0  0
 10 31  1  0  0  0  0
 11 12  1  0  0  0  0
 11 32  1  0  0  0  0
 11 33  1  0  0  0  0
 12 34  1  0  0  0  0
 12 35  1  0  0  0  0
 13 36  1  0  0  0  0
 13 37  1  0  0  0  0
 15 17  1  0  0  0  0
 16 18  1  0  0  0  0
 16 39  1  0  0  0  0
 16 40  1  0  0  0  0
 17 19  1  0  0  0  0
 18 21  2  0  0  0  0
 18 22  1  0  0  0  0
 19 20  2  0  0  0  0
 19 41  1  0  0  0  0
 20 25  1  0  0  0  0
 21 23  1  0  0  0  0
 21 42  1  0  0  0  0
 22 24  2  0  0  0  0
 22 43  1  0  0  0  0
 23 26  2  0  0  0  0
 23 44  1  0  0  0  0
 24 26  1  0  0  0  0
 24 45  1  0  0  0  0
 25 46  1  0  0  0  0
 25 47  1  0  0  0  0
 25 48  1  0  0  0  0
 26 49  1  0  0  0  0
M  END
> <PUBCHEM_COMPOUND_CID>
97925581

> <PUBCHEM_COMPOUND_CANONICALIZED>
1

> <PUBCHEM_CACTVS_COMPLEXITY>
481

> <PUBCHEM_CACTVS_HBOND_ACCEPTOR>
5

> <PUBCHEM_CACTVS_HBOND_DONOR>
1

> <PUBCHEM_CACTVS_ROTATABLE_BOND>
6

> <PUBCHEM_CACTVS_SUBSKEYS>
AAADceB7OAAAAAAAAAAAAAAAAAAAAWAAAAA8QAAAAAAAAAABwAAAHgAUAAAADQzhngYyjJPQBACpA6VyWgCCAAAmIgAomKG+bNoIZjqA9ZucMYhm1hmI6ce/wCAOAAAAAAAAAAAAAAAAAAAAAAAAAAAAAA==

> <PUBCHEM_IUPAC_OPENEYE_NAME>
benzyl (3R)-3-[[(5-methylisoxazole-3-carbonyl)amino]methyl]piperidine-1-carboxylate

> <PUBCHEM_IUPAC_CAS_NAME>
(3R)-3-[[[(5-methyl-3-isoxazolyl)-oxomethyl]amino]methyl]-1-piperidinecarboxylic acid (phenylmethyl) ester

> <PUBCHEM_IUPAC_NAME_MARKUP>
benzyl (3<I>R</I>)-3-[[(5-methyl-1,2-oxazole-3-carbonyl)amino]methyl]piperidine-1-carboxylate

> <PUBCHEM_IUPAC_NAME>
benzyl (3R)-3-[[(5-methyl-1,2-oxazole-3-carbonyl)amino]methyl]piperidine-1-carboxylate

> <PUBCHEM_IUPAC_SYSTEMATIC_NAME>
(phenylmethyl) (3R)-3-[[(5-methyl-1,2-oxazol-3-yl)carbonylamino]methyl]piperidine-1-carboxylate

> <PUBCHEM_IUPAC_TRADITIONAL_NAME>
(3R)-3-[[(5-methylisoxazole-3-carbonyl)amino]methyl]piperidine-1-carboxylic acid benzyl ester

> <PUBCHEM_IUPAC_INCHI>
InChI=1S/C19H23N3O4/c1-14-10-17(21-26-14)18(23)20-11-16-8-5-9-22(12-16)19(24)25-13-15-6-3-2-4-7-15/h2-4,6-7,10,16H,5,8-9,11-13H2,1H3,(H,20,23)/t16-/m1/s1

> <PUBCHEM_IUPAC_INCHIKEY>
KIGJZBYJWFBJTC-MRXNPFEDSA-N

> <PUBCHEM_XLOGP3_AA>
2.5

> <PUBCHEM_EXACT_MASS>
357.168856

> <PUBCHEM_MOLECULAR_FORMULA>
C19H23N3O4

> <PUBCHEM_MOLECULAR_WEIGHT>
357.4

> <PUBCHEM_OPENEYE_CAN_SMILES>
CC1=CC(=NO1)C(=O)NCC2CCCN(C2)C(=O)OCC3=CC=CC=C3

> <PUBCHEM_OPENEYE_ISO_SMILES>
CC1=CC(=NO1)C(=O)NC[C@H]2CCCN(C2)C(=O)OCC3=CC=CC=C3

> <PUBCHEM_CACTVS_TPSA>
84.7

> <PUBCHEM_MONOISOTOPIC_WEIGHT>
357.168856

> <PUBCHEM_TOTAL_CHARGE>
0

> <PUBCHEM_HEAVY_ATOM_COUNT>
26

> <PUBCHEM_ATOM_DEF_STEREO_COUNT>
1

> <PUBCHEM_ATOM_UDEF_STEREO_COUNT>
0

> <PUBCHEM_BOND_DEF_STEREO_COUNT>
0

> <PUBCHEM_BOND_UDEF_STEREO_COUNT>
0

> <PUBCHEM_ISOTOPIC_ATOM_COUNT>
0

> <PUBCHEM_COMPONENT_COUNT>
1

> <PUBCHEM_CACTVS_TAUTO_COUNT>
-1

> <PUBCHEM_COORDINATE_TYPE>
1
5
255

> <PUBCHEM_BONDANNOTATIONS>
17  19  8
18  21  8
18  22  8
19  20  8
21  23  8
22  24  8
23  26  8
24  26  8
4  20  8
4  7  8
7  17  8
8  13  5

$$$$
100984567
  -OEChem-02212016592D

 80 81  0     1  0  0  0  0  0999 V2000
    6.3092   -5.1012    0.0000 F   0  0  0  0  0  0  0  0  0  0  0  0
    5.4432    0.3988    0.0000 O   0  0  0  0  0  0  0  0  0  0  0  0
    8.0413   -2.1012    0.0000 O   0  0  0  0  0  0  0  0  0  0  0  0
    6.3092    3.8988    0.0000 O   0  0  0  0  0  0  0  0  0  0  0  0
    3.4945    5.1012    0.0000 O   0  0  0  0  0  0  0  0  0  0  0  0
    9.7734   -4.1012    0.0000 O   0  0  0  0  0  0  0  0  0  0  0  0
   13.2375   -1.1012    0.0000 O   0  0  0  0  0  0  0  0  0  0  0  0
   12.3714    0.3988    0.0000 O   0  0  0  0  0  0  0  0  0  0  0  0
    7.1753    0.3988    0.0000 N   0  0  0  0  0  0  0  0  0  0  0  0
    5.4432    2.3988    0.0000 N   0  0  0  0  0  0  0  0  0  0  0  0
    8.9073   -0.6012    0.0000 N   0  0  0  0  0  0  0  0  0  0  0  0
    4.4727    4.8933    0.0000 N   0  0  0  0  0  0  0  0  0  0  0  0
   11.5054   -4.1012    0.0000 N   0  0  0  0  0  0  0  0  0  0  0  0
    7.1753   -0.6012    0.0000 C   0  0  1  0  0  0  0  0  0  0  0  0
    6.3092    1.8988    0.0000 C   0  0  1  0  0  0  0  0  0  0  0  0
    7.1753    2.3988    0.0000 C   0  0  0  0  0  0  0  0  0  0  0  0
    6.3092    0.8988    0.0000 C   0  0  0  0  0  0  0  0  0  0  0  0
    6.3092   -1.1012    0.0000 C   0  0  0  0  0  0  0  0  0  0  0  0
    8.0413   -1.1012    0.0000 C   0  0  0  0  0  0  0  0  0  0  0  0
    7.1753    3.3988    0.0000 C   0  0  0  0  0  0  0  0  0  0  0  0
    8.0413    1.8988    0.0000 C   0  0  0  0  0  0  0  0  0  0  0  0
    9.7734   -1.1012    0.0000 C   0  0  1  0  0  0  0  0  0  0  0  0
    8.0413    0.8988    0.0000 C   0  0  0  0  0  0  0  0  0  0  0  0
    6.3092   -2.1012    0.0000 C   0  0  0  0  0  0  0  0  0  0  0  0
    9.7734   -2.1012    0.0000 C   0  0  0  0  0  0  0  0  0  0  0  0
    5.4432    3.3988    0.0000 C   0  0  0  0  0  0  0  0  0  0  0  0
   10.6394   -2.6012    0.0000 C   0  0  0  0  0  0  0  0  0  0  0  0
   10.6394   -0.6012    0.0000 C   0  0  0  0  0  0  0  0  0  0  0  0
    7.1753   -2.6012    0.0000 C   0  0  0  0  0  0  0  0  0  0  0  0
    5.4432   -2.6012    0.0000 C   0  0  0  0  0  0  0  0  0  0  0  0
    4.5772    3.8988    0.0000 C   0  0  0  0  0  0  0  0  0  0  0  0
    7.1753   -3.6012    0.0000 C   0  0  0  0  0  0  0  0  0  0  0  0
    5.4432   -3.6012    0.0000 C   0  0  0  0  0  0  0  0  0  0  0  0
   10.6394   -3.6012    0.0000 C   0  0  0  0  0  0  0  0  0  0  0  0
    6.3092   -4.1012    0.0000 C   0  0  0  0  0  0  0  0  0  0  0  0
   11.5054   -1.1012    0.0000 C   0  0  0  0  0  0  0  0  0  0  0  0
    3.6636    3.4920    0.0000 C   0  0  0  0  0  0  0  0  0  0  0  0
    2.9945    4.2352    0.0000 C   0  0  0  0  0  0  0  0  0  0  0  0
   12.3714   -0.6012    0.0000 C   0  0  0  0  0  0  0  0  0  0  0  0
    2.0000    4.1307    0.0000 C   0  0  0  0  0  0  0  0  0  0  0  0
   14.1035   -0.6012    0.0000 C   0  0  0  0  0  0  0  0  0  0  0  0
   14.9695   -1.1012    0.0000 C   0  0  0  0  0  0  0  0  0  0  0  0
    7.7122   -0.2912    0.0000 H   0  0  0  0  0  0  0  0  0  0  0  0
    6.3092    2.5188    0.0000 H   0  0  0  0  0  0  0  0  0  0  0  0
    7.1753    1.7788    0.0000 H   0  0  0  0  0  0  0  0  0  0  0  0
    6.0972   -0.5186    0.0000 H   0  0  0  0  0  0  0  0  0  0  0  0
    5.6987   -1.2089    0.0000 H   0  0  0  0  0  0  0  0  0  0  0  0
    7.7953    3.3988    0.0000 H   0  0  0  0  0  0  0  0  0  0  0  0
    7.1753    4.0188    0.0000 H   0  0  0  0  0  0  0  0  0  0  0  0
    6.5553    3.3988    0.0000 H   0  0  0  0  0  0  0  0  0  0  0  0
    7.7313    1.3618    0.0000 H   0  0  0  0  0  0  0  0  0  0  0  0
    8.5782    1.5888    0.0000 H   0  0  0  0  0  0  0  0  0  0  0  0
    8.3513    2.4357    0.0000 H   0  0  0  0  0  0  0  0  0  0  0  0
    9.7734   -0.4812    0.0000 H   0  0  0  0  0  0  0  0  0  0  0  0
    4.9063    2.0888    0.0000 H   0  0  0  0  0  0  0  0  0  0  0  0
    8.3513    0.3618    0.0000 H   0  0  0  0  0  0  0  0  0  0  0  0
    8.5782    1.2088    0.0000 H   0  0  0  0  0  0  0  0  0  0  0  0
    7.7313    1.4357    0.0000 H   0  0  0  0  0  0  0  0  0  0  0  0
    8.9073    0.0188    0.0000 H   0  0  0  0  0  0  0  0  0  0  0  0
    9.1628   -1.9936    0.0000 H   0  0  0  0  0  0  0  0  0  0  0  0
    9.5613   -2.6838    0.0000 H   0  0  0  0  0  0  0  0  0  0  0  0
   11.2500   -2.7089    0.0000 H   0  0  0  0  0  0  0  0  0  0  0  0
   10.8514   -2.0186    0.0000 H   0  0  0  0  0  0  0  0  0  0  0  0
   10.6394    0.0188    0.0000 H   0  0  0  0  0  0  0  0  0  0  0  0
    7.7122   -2.2912    0.0000 H   0  0  0  0  0  0  0  0  0  0  0  0
    4.9063   -2.2912    0.0000 H   0  0  0  0  0  0  0  0  0  0  0  0
    7.7122   -3.9112    0.0000 H   0  0  0  0  0  0  0  0  0  0  0  0
    4.9063   -3.9112    0.0000 H   0  0  0  0  0  0  0  0  0  0  0  0
   11.5054   -1.7212    0.0000 H   0  0  0  0  0  0  0  0  0  0  0  0
    3.5348    2.8856    0.0000 H   0  0  0  0  0  0  0  0  0  0  0  0
   11.5054   -4.7212    0.0000 H   0  0  0  0  0  0  0  0  0  0  0  0
   12.0423   -3.7912    0.0000 H   0  0  0  0  0  0  0  0  0  0  0  0
    1.9352    4.7473    0.0000 H   0  0  0  0  0  0  0  0  0  0  0  0
    1.3834    4.0659    0.0000 H   0  0  0  0  0  0  0  0  0  0  0  0
    2.0648    3.5141    0.0000 H   0  0  0  0  0  0  0  0  0  0  0  0
   14.5020   -0.1263    0.0000 H   0  0  0  0  0  0  0  0  0  0  0  0
   13.7049   -0.1263    0.0000 H   0  0  0  0  0  0  0  0  0  0  0  0
   14.6595   -1.6382    0.0000 H   0  0  0  0  0  0  0  0  0  0  0  0
   15.5064   -1.4112    0.0000 H   0  0  0  0  0  0  0  0  0  0  0  0
   15.2795   -0.5643    0.0000 H   0  0  0  0  0  0  0  0  0  0  0  0
  1 35  1  0  0  0  0
  2 17  2  0  0  0  0
  3 19  2  0  0  0  0
  4 26  2  0  0  0  0
  5 12  1  0  0  0  0
  5 38  1  0  0  0  0
  6 34  2  0  0  0  0
  7 39  1  0  0  0  0
  7 41  1  0  0  0  0
  8 39  2  0  0  0  0
 14  9  1  6  0  0  0
  9 17  1  0  0  0  0
  9 23  1  0  0  0  0
 15 10  1  1  0  0  0
 10 26  1  0  0  0  0
 10 55  1  0  0  0  0
 11 19  1  0  0  0  0
 22 11  1  6  0  0  0
 11 59  1  0  0  0  0
 12 31  2  0  0  0  0
 13 34  1  0  0  0  0
 13 71  1  0  0  0  0
 13 72  1  0  0  0  0
 14 18  1  0  0  0  0
 14 19  1  0  0  0  0
 14 43  1  0  0  0  0
 15 16  1  0  0  0  0
 15 17  1  0  0  0  0
 15 44  1  0  0  0  0
 16 20  1  0  0  0  0
 16 21  1  0  0  0  0
 16 45  1  0  0  0  0
 18 24  1  0  0  0  0
 18 46  1  0  0  0  0
 18 47  1  0  0  0  0
 20 48  1  0  0  0  0
 20 49  1  0  0  0  0
 20 50  1  0  0  0  0
 21 51  1  0  0  0  0
 21 52  1  0  0  0  0
 21 53  1  0  0  0  0
 22 25  1  0  0  0  0
 22 28  1  0  0  0  0
 22 54  1  0  0  0  0
 23 56  1  0  0  0  0
 23 57  1  0  0  0  0
 23 58  1  0  0  0  0
 24 29  2  0  0  0  0
 24 30  1  0  0  0  0
 25 27  1  0  0  0  0
 25 60  1  0  0  0  0
 25 61  1  0  0  0  0
 26 31  1  0  0  0  0
 27 34  1  0  0  0  0
 27 62  1  0  0  0  0
 27 63  1  0  0  0  0
 28 36  2  0  0  0  0
 28 64  1  0  0  0  0
 29 32  1  0  0  0  0
 29 65  1  0  0  0  0
 30 33  2  0  0  0  0
 30 66  1  0  0  0  0
 31 37  1  0  0  0  0
 32 35  2  0  0  0  0
 32 67  1  0  0  0  0
 33 35  1  0  0  0  0
 33 68  1  0  0  0  0
 36 39  1  0  0  0  0
 36 69  1  0  0  0  0
 37 38  2  0  0  0  0
 37 70  1  0  0  0  0
 38 40  1  0  0  0  0
 40 73  1  0  0  0  0
 40 74  1  0  0  0  0
 40 75  1  0  0  0  0
 41 42  1  0  0  0  0
 41 76  1  0  0  0  0
 41 77  1  0  0  0  0
 42 78  1  0  0  0  0
 42 79  1  0  0  0  0
 42 80  1  0  0  0  0
M  END
> <PUBCHEM_COMPOUND_CID>
100984567

> <PUBCHEM_COMPOUND_CANONICALIZED>
1

> <PUBCHEM_CACTVS_COMPLEXITY>
970

> <PUBCHEM_CACTVS_HBOND_ACCEPTOR>
9

> <PUBCHEM_CACTVS_HBOND_DONOR>
3

> <PUBCHEM_CACTVS_ROTATABLE_BOND>
16

> <PUBCHEM_CACTVS_SUBSKEYS>
AAADcfB7uQAAAAAAAAAAAAAAAAAAAWAAAAAwAAAAAAAAAAABwAAAHwAUAAAADSzhng4yjJPQBACpA6XyWgCCAAAmIgAomKG+bNoIZjqAtbOWMYhmlhiI6cc/iICOAAAAAAAAAAAAAAAAAAAAAAAAAAAAAA==

> <PUBCHEM_IUPAC_OPENEYE_NAME>
ethyl (E,4S)-7-amino-4-[[(2S)-3-(4-fluorophenyl)-2-[methyl-[(2S)-3-methyl-2-[(5-methylisoxazole-3-carbonyl)amino]butanoyl]amino]propanoyl]amino]-7-oxo-hept-2-enoate

> <PUBCHEM_IUPAC_CAS_NAME>
(E,4S)-7-amino-4-[[(2S)-3-(4-fluorophenyl)-2-[methyl-[(2S)-3-methyl-2-[[(5-methyl-3-isoxazolyl)-oxomethyl]amino]-1-oxobutyl]amino]-1-oxopropyl]amino]-7-oxo-2-heptenoic acid ethyl ester

> <PUBCHEM_IUPAC_NAME_MARKUP>
ethyl (<I>E</I>,4<I>S</I>)-7-amino-4-[[(2<I>S</I>)-3-(4-fluorophenyl)-2-[methyl-[(2<I>S</I>)-3-methyl-2-[(5-methyl-1,2-oxazole-3-carbonyl)amino]butanoyl]amino]propanoyl]amino]-7-oxohept-2-enoate

> <PUBCHEM_IUPAC_NAME>
ethyl (E,4S)-7-amino-4-[[(2S)-3-(4-fluorophenyl)-2-[methyl-[(2S)-3-methyl-2-[(5-methyl-1,2-oxazole-3-carbonyl)amino]butanoyl]amino]propanoyl]amino]-7-oxohept-2-enoate

> <PUBCHEM_IUPAC_SYSTEMATIC_NAME>
ethyl (E,4S)-7-azanyl-4-[[(2S)-3-(4-fluorophenyl)-2-[methyl-[(2S)-3-methyl-2-[(5-methyl-1,2-oxazol-3-yl)carbonylamino]butanoyl]amino]propanoyl]amino]-7-oxidanylidene-hept-2-enoate

> <PUBCHEM_IUPAC_TRADITIONAL_NAME>
(E,4S)-7-amino-4-[[(2S)-3-(4-fluorophenyl)-2-[methyl-[(2S)-3-methyl-2-[(5-methylisoxazole-3-carbonyl)amino]butanoyl]amino]propanoyl]amino]-7-keto-hept-2-enoic acid ethyl ester

> <PUBCHEM_IUPAC_INCHI>
InChI=1S/C29H38FN5O7/c1-6-41-25(37)14-12-21(11-13-24(31)36)32-28(39)23(16-19-7-9-20(30)10-8-19)35(5)29(40)26(17(2)3)33-27(38)22-15-18(4)42-34-22/h7-10,12,14-15,17,21,23,26H,6,11,13,16H2,1-5H3,(H2,31,36)(H,32,39)(H,33,38)/b14-12+/t21-,23-,26-/m0/s1

> <PUBCHEM_IUPAC_INCHIKEY>
LEWOTMGWXOCNNR-MVHXBRSJSA-N

> <PUBCHEM_XLOGP3_AA>
2.5

> <PUBCHEM_EXACT_MASS>
587.275527

> <PUBCHEM_MOLECULAR_FORMULA>
C29H38FN5O7

> <PUBCHEM_MOLECULAR_WEIGHT>
587.6

> <PUBCHEM_OPENEYE_CAN_SMILES>
CCOC(=O)C=CC(CCC(=O)N)NC(=O)C(CC1=CC=C(C=C1)F)N(C)C(=O)C(C(C)C)NC(=O)C2=NOC(=C2)C

> <PUBCHEM_OPENEYE_ISO_SMILES>
CCOC(=O)/C=C/[C@H](CCC(=O)N)NC(=O)[C@H](CC1=CC=C(C=C1)F)N(C)C(=O)[C@H](C(C)C)NC(=O)C2=NOC(=C2)C

> <PUBCHEM_CACTVS_TPSA>
174

> <PUBCHEM_MONOISOTOPIC_WEIGHT>
587.275527

> <PUBCHEM_TOTAL_CHARGE>
0

> <PUBCHEM_HEAVY_ATOM_COUNT>
42

> <PUBCHEM_ATOM_DEF_STEREO_COUNT>
3

> <PUBCHEM_ATOM_UDEF_STEREO_COUNT>
0

> <PUBCHEM_BOND_DEF_STEREO_COUNT>
1

> <PUBCHEM_BOND_UDEF_STEREO_COUNT>
0

> <PUBCHEM_ISOTOPIC_ATOM_COUNT>
0

> <PUBCHEM_COMPONENT_COUNT>
1

> <PUBCHEM_CACTVS_TAUTO_COUNT>
-1

> <PUBCHEM_COORDINATE_TYPE>
1
5
255

> <PUBCHEM_BONDANNOTATIONS>
15  10  5
22  11  6
12  31  8
24  29  8
24  30  8
29  32  8
30  33  8
31  37  8
32  35  8
33  35  8
37  38  8
5  12  8
5  38  8
14  9  6

$$$$
101081093
  -OEChem-02212016592D

 82 84  0     1  0  0  0  0  0999 V2000
    5.4641   -5.2702    0.0000 F   0  0  0  0  0  0  0  0  0  0  0  0
    8.0902    3.5086    0.0000 O   0  0  0  0  0  0  0  0  0  0  0  0
    7.1962    0.7298    0.0000 O   0  0  0  0  0  0  0  0  0  0  0  0
    8.0622    0.2298    0.0000 O   0  0  0  0  0  0  0  0  0  0  0  0
    2.8660    3.2298    0.0000 O   0  0  0  0  0  0  0  0  0  0  0  0
   10.6603   -2.2702    0.0000 O   0  0  0  0  0  0  0  0  0  0  0  0
    2.0000    1.7298    0.0000 O   0  0  0  0  0  0  0  0  0  0  0  0
   12.6090    0.4322    0.0000 O   0  0  0  0  0  0  0  0  0  0  0  0
    6.8301    4.7686    0.0000 N   0  0  0  0  0  0  0  0  0  0  0  0
    5.4641    0.7298    0.0000 N   0  0  0  0  0  0  0  0  0  0  0  0
    9.7942   -0.7702    0.0000 N   0  0  0  0  0  0  0  0  0  0  0  0
   11.6308    0.2243    0.0000 N   0  0  0  0  0  0  0  0  0  0  0  0
    6.3301    3.2298    0.0000 C   0  0  1  0  0  0  0  0  0  0  0  0
    6.3301    2.2298    0.0000 C   0  0  0  0  0  0  0  0  0  0  0  0
    5.5211    3.8176    0.0000 C   0  0  0  0  0  0  0  0  0  0  0  0
    5.4641    1.7298    0.0000 C   0  0  1  0  0  0  0  0  0  0  0  0
    5.8301    4.7686    0.0000 C   0  0  0  0  0  0  0  0  0  0  0  0
    7.1391    3.8176    0.0000 C   0  0  0  0  0  0  0  0  0  0  0  0
    6.3301   -0.7702    0.0000 C   0  0  2  0  0  0  0  0  0  0  0  0
    7.1962   -1.2702    0.0000 C   0  0  0  0  0  0  0  0  0  0  0  0
    6.3301    0.2298    0.0000 C   0  0  0  0  0  0  0  0  0  0  0  0
    8.9282   -1.2702    0.0000 C   0  0  1  0  0  0  0  0  0  0  0  0
    5.4641   -1.2702    0.0000 C   0  0  0  0  0  0  0  0  0  0  0  0
    8.9282   -2.2702    0.0000 C   0  0  0  0  0  0  0  0  0  0  0  0
    8.0622   -0.7702    0.0000 C   0  0  0  0  0  0  0  0  0  0  0  0
    4.5981    2.2298    0.0000 C   0  0  0  0  0  0  0  0  0  0  0  0
    5.4641   -2.2702    0.0000 C   0  0  0  0  0  0  0  0  0  0  0  0
    9.7942   -2.7702    0.0000 C   0  0  0  0  0  0  0  0  0  0  0  0
    8.0622   -2.7702    0.0000 C   0  0  0  0  0  0  0  0  0  0  0  0
    3.7320    1.7298    0.0000 C   0  0  0  0  0  0  0  0  0  0  0  0
    6.3301   -2.7702    0.0000 C   0  0  0  0  0  0  0  0  0  0  0  0
    4.5981   -2.7702    0.0000 C   0  0  0  0  0  0  0  0  0  0  0  0
   10.6603   -1.2702    0.0000 C   0  0  0  0  0  0  0  0  0  0  0  0
    2.8660    2.2298    0.0000 C   0  0  0  0  0  0  0  0  0  0  0  0
    6.3301   -3.7702    0.0000 C   0  0  0  0  0  0  0  0  0  0  0  0
    4.5981   -3.7702    0.0000 C   0  0  0  0  0  0  0  0  0  0  0  0
   11.5263   -0.7702    0.0000 C   0  0  0  0  0  0  0  0  0  0  0  0
    5.4641   -4.2702    0.0000 C   0  0  0  0  0  0  0  0  0  0  0  0
   12.4398   -1.1770    0.0000 C   0  0  0  0  0  0  0  0  0  0  0  0
   13.1090   -0.4338    0.0000 C   0  0  0  0  0  0  0  0  0  0  0  0
    2.0000    3.7298    0.0000 C   0  0  0  0  0  0  0  0  0  0  0  0
   14.1035   -0.5383    0.0000 C   0  0  0  0  0  0  0  0  0  0  0  0
    2.0000    4.7298    0.0000 C   0  0  0  0  0  0  0  0  0  0  0  0
    6.8826    2.9483    0.0000 H   0  0  0  0  0  0  0  0  0  0  0  0
    6.5422    1.6472    0.0000 H   0  0  0  0  0  0  0  0  0  0  0  0
    6.9407    2.3374    0.0000 H   0  0  0  0  0  0  0  0  0  0  0  0
    4.9547    4.0698    0.0000 H   0  0  0  0  0  0  0  0  0  0  0  0
    5.2111    3.2806    0.0000 H   0  0  0  0  0  0  0  0  0  0  0  0
    6.0010    1.4198    0.0000 H   0  0  0  0  0  0  0  0  0  0  0  0
    5.8949    5.3852    0.0000 H   0  0  0  0  0  0  0  0  0  0  0  0
    5.2237    4.8975    0.0000 H   0  0  0  0  0  0  0  0  0  0  0  0
    6.8671   -0.4602    0.0000 H   0  0  0  0  0  0  0  0  0  0  0  0
    7.1946    5.2702    0.0000 H   0  0  0  0  0  0  0  0  0  0  0  0
    4.9272    0.4198    0.0000 H   0  0  0  0  0  0  0  0  0  0  0  0
    6.7976   -1.7452    0.0000 H   0  0  0  0  0  0  0  0  0  0  0  0
    7.5947   -1.7452    0.0000 H   0  0  0  0  0  0  0  0  0  0  0  0
    8.9282   -0.6502    0.0000 H   0  0  0  0  0  0  0  0  0  0  0  0
    5.2520   -0.6876    0.0000 H   0  0  0  0  0  0  0  0  0  0  0  0
    4.8535   -1.3779    0.0000 H   0  0  0  0  0  0  0  0  0  0  0  0
    9.4651   -1.9602    0.0000 H   0  0  0  0  0  0  0  0  0  0  0  0
    4.5981    2.8498    0.0000 H   0  0  0  0  0  0  0  0  0  0  0  0
    9.7942   -0.1502    0.0000 H   0  0  0  0  0  0  0  0  0  0  0  0
    9.4842   -3.3072    0.0000 H   0  0  0  0  0  0  0  0  0  0  0  0
   10.3312   -3.0802    0.0000 H   0  0  0  0  0  0  0  0  0  0  0  0
   10.1042   -2.2333    0.0000 H   0  0  0  0  0  0  0  0  0  0  0  0
    7.7522   -2.2333    0.0000 H   0  0  0  0  0  0  0  0  0  0  0  0
    7.5252   -3.0802    0.0000 H   0  0  0  0  0  0  0  0  0  0  0  0
    8.3722   -3.3072    0.0000 H   0  0  0  0  0  0  0  0  0  0  0  0
    3.7320    1.1098    0.0000 H   0  0  0  0  0  0  0  0  0  0  0  0
    6.8671   -2.4602    0.0000 H   0  0  0  0  0  0  0  0  0  0  0  0
    4.0611   -2.4602    0.0000 H   0  0  0  0  0  0  0  0  0  0  0  0
    6.8671   -4.0802    0.0000 H   0  0  0  0  0  0  0  0  0  0  0  0
    4.0611   -4.0802    0.0000 H   0  0  0  0  0  0  0  0  0  0  0  0
   12.5687   -1.7834    0.0000 H   0  0  0  0  0  0  0  0  0  0  0  0
    1.3894    3.8374    0.0000 H   0  0  0  0  0  0  0  0  0  0  0  0
    1.7880    3.1472    0.0000 H   0  0  0  0  0  0  0  0  0  0  0  0
   14.0387   -1.1549    0.0000 H   0  0  0  0  0  0  0  0  0  0  0  0
   14.7201   -0.6031    0.0000 H   0  0  0  0  0  0  0  0  0  0  0  0
   14.1683    0.0783    0.0000 H   0  0  0  0  0  0  0  0  0  0  0  0
    2.6200    4.7298    0.0000 H   0  0  0  0  0  0  0  0  0  0  0  0
    2.0000    5.3498    0.0000 H   0  0  0  0  0  0  0  0  0  0  0  0
    1.3800    4.7298    0.0000 H   0  0  0  0  0  0  0  0  0  0  0  0
  1 38  1  0  0  0  0
  2 18  2  0  0  0  0
  3 21  2  0  0  0  0
  4 25  2  0  0  0  0
  5 34  1  0  0  0  0
  5 41  1  0  0  0  0
  6 33  2  0  0  0  0
  7 34  2  0  0  0  0
  8 12  1  0  0  0  0
  8 40  1  0  0  0  0
  9 17  1  0  0  0  0
  9 18  1  0  0  0  0
  9 53  1  0  0  0  0
 16 10  1  6  0  0  0
 10 21  1  0  0  0  0
 10 54  1  0  0  0  0
 22 11  1  1  0  0  0
 11 33  1  0  0  0  0
 11 62  1  0  0  0  0
 12 37  2  0  0  0  0
 13 14  1  1  0  0  0
 13 15  1  0  0  0  0
 13 18  1  0  0  0  0
 13 44  1  0  0  0  0
 14 16  1  0  0  0  0
 14 45  1  0  0  0  0
 14 46  1  0  0  0  0
 15 17  1  0  0  0  0
 15 47  1  0  0  0  0
 15 48  1  0  0  0  0
 16 26  1  0  0  0  0
 16 49  1  0  0  0  0
 17 50  1  0  0  0  0
 17 51  1  0  0  0  0
 19 20  1  1  0  0  0
 19 21  1  0  0  0  0
 19 23  1  0  0  0  0
 19 52  1  0  0  0  0
 20 25  1  0  0  0  0
 20 55  1  0  0  0  0
 20 56  1  0  0  0  0
 22 24  1  0  0  0  0
 22 25  1  0  0  0  0
 22 57  1  0  0  0  0
 23 27  1  0  0  0  0
 23 58  1  0  0  0  0
 23 59  1  0  0  0  0
 24 28  1  0  0  0  0
 24 29  1  0  0  0  0
 24 60  1  0  0  0  0
 26 30  2  0  0  0  0
 26 61  1  0  0  0  0
 27 31  2  0  0  0  0
 27 32  1  0  0  0  0
 28 63  1  0  0  0  0
 28 64  1  0  0  0  0
 28 65  1  0  0  0  0
 29 66  1  0  0  0  0
 29 67  1  0  0  0  0
 29 68  1  0  0  0  0
 30 34  1  0  0  0  0
 30 69  1  0  0  0  0
 31 35  1  0  0  0  0
 31 70  1  0  0  0  0
 32 36  2  0  0  0  0
 32 71  1  0  0  0  0
 33 37  1  0  0  0  0
 35 38  2  0  0  0  0
 35 72  1  0  0  0  0
 36 38  1  0  0  0  0
 36 73  1  0  0  0  0
 37 39  1  0  0  0  0
 39 40  2  0  0  0  0
 39 74  1  0  0  0  0
 40 42  1  0  0  0  0
 41 43  1  0  0  0  0
 41 75  1  0  0  0  0
 41 76  1  0  0  0  0
 42 77  1  0  0  0  0
 42 78  1  0  0  0  0
 42 79  1  0  0  0  0
 43 80  1  0  0  0  0
 43 81  1  0  0  0  0
 43 82  1  0  0  0  0
M  END
> <PUBCHEM_COMPOUND_CID>
101081093

> <PUBCHEM_COMPOUND_CANONICALIZED>
1

> <PUBCHEM_CACTVS_COMPLEXITY>
1010

> <PUBCHEM_CACTVS_HBOND_ACCEPTOR>
9

> <PUBCHEM_CACTVS_HBOND_DONOR>
3

> <PUBCHEM_CACTVS_ROTATABLE_BOND>
16

> <PUBCHEM_CACTVS_SUBSKEYS>
AAADcfB7uQAAAAAAAAAAAAAAAAAAAWLAAAAwAAAAAAAAAAABwAAAHwAUAAAADSzhng4yjJLQBACpA6XyWgCCAAAmIgAomKG+bNoIZjqAtbOWMYhmlhiI6cc/icCeAAAAAAAAAAAAAAAAAAAAAAAAAAAAAA==

> <PUBCHEM_IUPAC_OPENEYE_NAME>
ethyl (E,4S)-4-[[(2R,5S)-2-[(4-fluorophenyl)methyl]-6-methyl-5-[(5-methylisoxazole-3-carbonyl)amino]-4-oxo-heptanoyl]amino]-5-[(3R)-2-oxopyrrolidin-3-yl]pent-2-enoate

> <PUBCHEM_IUPAC_CAS_NAME>
(E,4S)-4-[[(2R,5S)-2-[(4-fluorophenyl)methyl]-6-methyl-5-[[(5-methyl-3-isoxazolyl)-oxomethyl]amino]-1,4-dioxoheptyl]amino]-5-[(3R)-2-oxo-3-pyrrolidinyl]-2-pentenoic acid ethyl ester

> <PUBCHEM_IUPAC_NAME_MARKUP>
ethyl (<I>E</I>,4<I>S</I>)-4-[[(2<I>R</I>,5<I>S</I>)-2-[(4-fluorophenyl)methyl]-6-methyl-5-[(5-methyl-1,2-oxazole-3-carbonyl)amino]-4-oxoheptanoyl]amino]-5-[(3<I>R</I>)-2-oxopyrrolidin-3-yl]pent-2-enoate

> <PUBCHEM_IUPAC_NAME>
ethyl (E,4S)-4-[[(2R,5S)-2-[(4-fluorophenyl)methyl]-6-methyl-5-[(5-methyl-1,2-oxazole-3-carbonyl)amino]-4-oxoheptanoyl]amino]-5-[(3R)-2-oxopyrrolidin-3-yl]pent-2-enoate

> <PUBCHEM_IUPAC_SYSTEMATIC_NAME>
ethyl (E,4S)-4-[[(2R,5S)-2-[(4-fluorophenyl)methyl]-6-methyl-5-[(5-methyl-1,2-oxazol-3-yl)carbonylamino]-4-oxidanylidene-heptanoyl]amino]-5-[(3R)-2-oxidanylidenepyrrolidin-3-yl]pent-2-enoate

> <PUBCHEM_IUPAC_TRADITIONAL_NAME>
(E,4S)-4-[[(2R,5S)-2-(4-fluorobenzyl)-4-keto-6-methyl-5-[(5-methylisoxazole-3-carbonyl)amino]heptanoyl]amino]-5-[(3R)-2-ketopyrrolidin-3-yl]pent-2-enoic acid ethyl ester

> <PUBCHEM_IUPAC_INCHI>
InChI=1S/C31H39FN4O7/c1-5-42-27(38)11-10-24(16-21-12-13-33-29(21)39)34-30(40)22(15-20-6-8-23(32)9-7-20)17-26(37)28(18(2)3)35-31(41)25-14-19(4)43-36-25/h6-11,14,18,21-22,24,28H,5,12-13,15-17H2,1-4H3,(H,33,39)(H,34,40)(H,35,41)/b11-10+/t21-,22-,24-,28+/m1/s1

> <PUBCHEM_IUPAC_INCHIKEY>
CAYJBRBGZBCZKO-MOJPIYRCSA-N

> <PUBCHEM_XLOGP3_AA>
3.1

> <PUBCHEM_EXACT_MASS>
598.280278

> <PUBCHEM_MOLECULAR_FORMULA>
C31H39FN4O7

> <PUBCHEM_MOLECULAR_WEIGHT>
598.7

> <PUBCHEM_OPENEYE_CAN_SMILES>
CCOC(=O)C=CC(CC1CCNC1=O)NC(=O)C(CC2=CC=C(C=C2)F)CC(=O)C(C(C)C)NC(=O)C3=NOC(=C3)C

> <PUBCHEM_OPENEYE_ISO_SMILES>
CCOC(=O)/C=C/[C@H](C[C@H]1CCNC1=O)NC(=O)[C@H](CC2=CC=C(C=C2)F)CC(=O)[C@H](C(C)C)NC(=O)C3=NOC(=C3)C

> <PUBCHEM_CACTVS_TPSA>
157

> <PUBCHEM_MONOISOTOPIC_WEIGHT>
598.280278

> <PUBCHEM_TOTAL_CHARGE>
0

> <PUBCHEM_HEAVY_ATOM_COUNT>
43

> <PUBCHEM_ATOM_DEF_STEREO_COUNT>
4

> <PUBCHEM_ATOM_UDEF_STEREO_COUNT>
0

> <PUBCHEM_BOND_DEF_STEREO_COUNT>
1

> <PUBCHEM_BOND_UDEF_STEREO_COUNT>
0

> <PUBCHEM_ISOTOPIC_ATOM_COUNT>
0

> <PUBCHEM_COMPONENT_COUNT>
1

> <PUBCHEM_CACTVS_TAUTO_COUNT>
-1

> <PUBCHEM_COORDINATE_TYPE>
1
5
255

> <PUBCHEM_BONDANNOTATIONS>
16  10  6
22  11  5
12  37  8
13  14  5
19  20  5
27  31  8
27  32  8
31  35  8
32  36  8
35  38  8
36  38  8
37  39  8
39  40  8
8  12  8
8  40  8

$$$$
102019607
  -OEChem-02212016592D

 83 85  0     1  0  0  0  0  0999 V2000
    4.5981   -5.7500    0.0000 F   0  0  0  0  0  0  0  0  0  0  0  0
    7.4516    1.8651    0.0000 O   0  0  0  0  0  0  0  0  0  0  0  0
    6.3301   -1.7500    0.0000 O   0  0  0  0  0  0  0  0  0  0  0  0
    6.3301    0.2500    0.0000 O   0  0  0  0  0  0  0  0  0  0  0  0
    7.1962   -0.2500    0.0000 O   0  0  0  0  0  0  0  0  0  0  0  0
    2.8660    4.2500    0.0000 O   0  0  0  0  0  0  0  0  0  0  0  0
    2.0000    2.7500    0.0000 O   0  0  0  0  0  0  0  0  0  0  0  0
    9.7942   -2.7500    0.0000 O   0  0  0  0  0  0  0  0  0  0  0  0
   12.2429   -0.9136    0.0000 O   0  0  0  0  0  0  0  0  0  0  0  0
    7.9128    3.5864    0.0000 N   0  0  0  0  0  0  0  0  0  0  0  0
    4.5981    0.2500    0.0000 N   0  0  0  0  0  0  0  0  0  0  0  0
    8.9282   -1.2500    0.0000 N   0  0  0  0  0  0  0  0  0  0  0  0
   11.5738   -1.6567    0.0000 N   0  0  0  0  0  0  0  0  0  0  0  0
    6.3301    3.2500    0.0000 C   0  0  2  0  0  0  0  0  0  0  0  0
    5.4641    2.7500    0.0000 C   0  0  0  0  0  0  0  0  0  0  0  0
    6.4347    4.2445    0.0000 C   0  0  0  0  0  0  0  0  0  0  0  0
    5.4641    1.7500    0.0000 C   0  0  0  0  0  0  0  0  0  0  0  0
    7.4128    4.4524    0.0000 C   0  0  0  0  0  0  0  0  0  0  0  0
    7.2437    2.8433    0.0000 C   0  0  0  0  0  0  0  0  0  0  0  0
    4.5981    1.2500    0.0000 C   0  0  1  0  0  0  0  0  0  0  0  0
    3.7320    1.7500    0.0000 C   0  0  0  0  0  0  0  0  0  0  0  0
    5.4641   -1.2500    0.0000 C   0  0  2  0  0  0  0  0  0  0  0  0
    5.4641   -0.2500    0.0000 C   0  0  0  0  0  0  0  0  0  0  0  0
    8.0622   -1.7500    0.0000 C   0  0  1  0  0  0  0  0  0  0  0  0
    4.5981   -1.7500    0.0000 C   0  0  0  0  0  0  0  0  0  0  0  0
    8.0622   -2.7500    0.0000 C   0  0  0  0  0  0  0  0  0  0  0  0
    3.7320    2.7500    0.0000 C   0  0  0  0  0  0  0  0  0  0  0  0
    7.1962   -1.2500    0.0000 C   0  0  0  0  0  0  0  0  0  0  0  0
    4.5981   -2.7500    0.0000 C   0  0  0  0  0  0  0  0  0  0  0  0
    8.9282   -3.2500    0.0000 C   0  0  0  0  0  0  0  0  0  0  0  0
    7.1962   -3.2500    0.0000 C   0  0  0  0  0  0  0  0  0  0  0  0
    2.8660    3.2500    0.0000 C   0  0  0  0  0  0  0  0  0  0  0  0
    5.4641   -3.2500    0.0000 C   0  0  0  0  0  0  0  0  0  0  0  0
    3.7320   -3.2500    0.0000 C   0  0  0  0  0  0  0  0  0  0  0  0
    9.7942   -1.7500    0.0000 C   0  0  0  0  0  0  0  0  0  0  0  0
    5.4641   -4.2500    0.0000 C   0  0  0  0  0  0  0  0  0  0  0  0
    3.7320   -4.2500    0.0000 C   0  0  0  0  0  0  0  0  0  0  0  0
   10.6603   -1.2500    0.0000 C   0  0  0  0  0  0  0  0  0  0  0  0
    4.5981   -4.7500    0.0000 C   0  0  0  0  0  0  0  0  0  0  0  0
    2.0000    4.7500    0.0000 C   0  0  0  0  0  0  0  0  0  0  0  0
   10.7648   -0.2555    0.0000 C   0  0  0  0  0  0  0  0  0  0  0  0
   11.7429   -0.0476    0.0000 C   0  0  0  0  0  0  0  0  0  0  0  0
    2.0000    5.7500    0.0000 C   0  0  0  0  0  0  0  0  0  0  0  0
   12.1497    0.8660    0.0000 C   0  0  0  0  0  0  0  0  0  0  0  0
    5.8102    3.5877    0.0000 H   0  0  0  0  0  0  0  0  0  0  0  0
    5.2520    3.3326    0.0000 H   0  0  0  0  0  0  0  0  0  0  0  0
    4.8535    2.6423    0.0000 H   0  0  0  0  0  0  0  0  0  0  0  0
    6.3698    4.8611    0.0000 H   0  0  0  0  0  0  0  0  0  0  0  0
    5.8147    4.2445    0.0000 H   0  0  0  0  0  0  0  0  0  0  0  0
    5.6762    1.1674    0.0000 H   0  0  0  0  0  0  0  0  0  0  0  0
    6.0747    1.8577    0.0000 H   0  0  0  0  0  0  0  0  0  0  0  0
    7.9792    4.7046    0.0000 H   0  0  0  0  0  0  0  0  0  0  0  0
    7.2212    5.0421    0.0000 H   0  0  0  0  0  0  0  0  0  0  0  0
    5.1350    0.9400    0.0000 H   0  0  0  0  0  0  0  0  0  0  0  0
    8.5294    3.5216    0.0000 H   0  0  0  0  0  0  0  0  0  0  0  0
    4.0611   -0.0600    0.0000 H   0  0  0  0  0  0  0  0  0  0  0  0
    3.1951    1.4400    0.0000 H   0  0  0  0  0  0  0  0  0  0  0  0
    5.4641   -1.8700    0.0000 H   0  0  0  0  0  0  0  0  0  0  0  0
    8.0622   -1.1300    0.0000 H   0  0  0  0  0  0  0  0  0  0  0  0
    8.0622   -3.3700    0.0000 H   0  0  0  0  0  0  0  0  0  0  0  0
    4.3860   -1.1674    0.0000 H   0  0  0  0  0  0  0  0  0  0  0  0
    3.9875   -1.8577    0.0000 H   0  0  0  0  0  0  0  0  0  0  0  0
    4.2690    3.0600    0.0000 H   0  0  0  0  0  0  0  0  0  0  0  0
    8.6182   -3.7869    0.0000 H   0  0  0  0  0  0  0  0  0  0  0  0
    9.4651   -3.5600    0.0000 H   0  0  0  0  0  0  0  0  0  0  0  0
    9.2382   -2.7131    0.0000 H   0  0  0  0  0  0  0  0  0  0  0  0
    6.8862   -2.7131    0.0000 H   0  0  0  0  0  0  0  0  0  0  0  0
    6.6592   -3.5600    0.0000 H   0  0  0  0  0  0  0  0  0  0  0  0
    7.5062   -3.7869    0.0000 H   0  0  0  0  0  0  0  0  0  0  0  0
    8.9282   -0.6300    0.0000 H   0  0  0  0  0  0  0  0  0  0  0  0
    6.0010   -2.9400    0.0000 H   0  0  0  0  0  0  0  0  0  0  0  0
    3.1951   -2.9400    0.0000 H   0  0  0  0  0  0  0  0  0  0  0  0
    6.0010   -4.5600    0.0000 H   0  0  0  0  0  0  0  0  0  0  0  0
    3.1951   -4.5600    0.0000 H   0  0  0  0  0  0  0  0  0  0  0  0
   10.3040    0.1594    0.0000 H   0  0  0  0  0  0  0  0  0  0  0  0
    1.3894    4.8577    0.0000 H   0  0  0  0  0  0  0  0  0  0  0  0
    1.7880    4.1674    0.0000 H   0  0  0  0  0  0  0  0  0  0  0  0
    2.6200    5.7500    0.0000 H   0  0  0  0  0  0  0  0  0  0  0  0
    2.0000    6.3700    0.0000 H   0  0  0  0  0  0  0  0  0  0  0  0
    1.3800    5.7500    0.0000 H   0  0  0  0  0  0  0  0  0  0  0  0
   12.7161    0.6138    0.0000 H   0  0  0  0  0  0  0  0  0  0  0  0
   12.4018    1.4324    0.0000 H   0  0  0  0  0  0  0  0  0  0  0  0
   11.5833    1.1182    0.0000 H   0  0  0  0  0  0  0  0  0  0  0  0
  1 39  1  0  0  0  0
  2 19  2  0  0  0  0
 22  3  1  1  0  0  0
  3 28  1  0  0  0  0
  4 23  2  0  0  0  0
  5 28  2  0  0  0  0
  6 32  1  0  0  0  0
  6 40  1  0  0  0  0
  7 32  2  0  0  0  0
  8 35  2  0  0  0  0
  9 13  1  0  0  0  0
  9 42  1  0  0  0  0
 10 18  1  0  0  0  0
 10 19  1  0  0  0  0
 10 55  1  0  0  0  0
 20 11  1  6  0  0  0
 11 23  1  0  0  0  0
 11 56  1  0  0  0  0
 24 12  1  1  0  0  0
 12 35  1  0  0  0  0
 12 70  1  0  0  0  0
 13 38  2  0  0  0  0
 14 15  1  6  0  0  0
 14 16  1  0  0  0  0
 14 19  1  0  0  0  0
 14 45  1  0  0  0  0
 15 17  1  0  0  0  0
 15 46  1  0  0  0  0
 15 47  1  0  0  0  0
 16 18  1  0  0  0  0
 16 48  1  0  0  0  0
 16 49  1  0  0  0  0
 17 20  1  0  0  0  0
 17 50  1  0  0  0  0
 17 51  1  0  0  0  0
 18 52  1  0  0  0  0
 18 53  1  0  0  0  0
 20 21  1  0  0  0  0
 20 54  1  0  0  0  0
 21 27  2  0  0  0  0
 21 57  1  0  0  0  0
 22 23  1  0  0  0  0
 22 25  1  0  0  0  0
 22 58  1  0  0  0  0
 24 26  1  0  0  0  0
 24 28  1  0  0  0  0
 24 59  1  0  0  0  0
 25 29  1  0  0  0  0
 25 61  1  0  0  0  0
 25 62  1  0  0  0  0
 26 30  1  0  0  0  0
 26 31  1  0  0  0  0
 26 60  1  0  0  0  0
 27 32  1  0  0  0  0
 27 63  1  0  0  0  0
 29 33  2  0  0  0  0
 29 34  1  0  0  0  0
 30 64  1  0  0  0  0
 30 65  1  0  0  0  0
 30 66  1  0  0  0  0
 31 67  1  0  0  0  0
 31 68  1  0  0  0  0
 31 69  1  0  0  0  0
 33 36  1  0  0  0  0
 33 71  1  0  0  0  0
 34 37  2  0  0  0  0
 34 72  1  0  0  0  0
 35 38  1  0  0  0  0
 36 39  2  0  0  0  0
 36 73  1  0  0  0  0
 37 39  1  0  0  0  0
 37 74  1  0  0  0  0
 38 41  1  0  0  0  0
 40 43  1  0  0  0  0
 40 76  1  0  0  0  0
 40 77  1  0  0  0  0
 41 42  2  0  0  0  0
 41 75  1  0  0  0  0
 42 44  1  0  0  0  0
 43 78  1  0  0  0  0
 43 79  1  0  0  0  0
 43 80  1  0  0  0  0
 44 81  1  0  0  0  0
 44 82  1  0  0  0  0
 44 83  1  0  0  0  0
M  END
> <PUBCHEM_COMPOUND_CID>
102019607

> <PUBCHEM_COMPOUND_CANONICALIZED>
1

> <PUBCHEM_CACTVS_COMPLEXITY>
1030

> <PUBCHEM_CACTVS_HBOND_ACCEPTOR>
10

> <PUBCHEM_CACTVS_HBOND_DONOR>
3

> <PUBCHEM_CACTVS_ROTATABLE_BOND>
17

> <PUBCHEM_CACTVS_SUBSKEYS>
AAADcfB7vQAAAAAAAAAAAAAAAAAAAWLAAAAwAAAAAAAAAAABwAAAHwAUAAAADTzhng4yjJLQBACpA6XyWgKCAAAmIgAomKH+bNoKZjqAtbeXMYhm1hmY6ce/yaCeAAAAAAAAAAAAAAAAAAAAAAAAAAAAAA==

> <PUBCHEM_IUPAC_OPENEYE_NAME>
ethyl (E,4S)-4-[[(2S)-3-(4-fluorophenyl)-2-[(2S)-3-methyl-2-[(5-methylisoxazole-3-carbonyl)amino]butanoyl]oxy-propanoyl]amino]-6-[(3R)-2-oxopyrrolidin-3-yl]hex-2-enoate

> <PUBCHEM_IUPAC_CAS_NAME>
(E,4S)-4-[[(2S)-3-(4-fluorophenyl)-2-[(2S)-3-methyl-2-[[(5-methyl-3-isoxazolyl)-oxomethyl]amino]-1-oxobutoxy]-1-oxopropyl]amino]-6-[(3R)-2-oxo-3-pyrrolidinyl]-2-hexenoic acid ethyl ester

> <PUBCHEM_IUPAC_NAME_MARKUP>
ethyl (<I>E</I>,4<I>S</I>)-4-[[(2<I>S</I>)-3-(4-fluorophenyl)-2-[(2<I>S</I>)-3-methyl-2-[(5-methyl-1,2-oxazole-3-carbonyl)amino]butanoyl]oxypropanoyl]amino]-6-[(3<I>R</I>)-2-oxopyrrolidin-3-yl]hex-2-enoate

> <PUBCHEM_IUPAC_NAME>
ethyl (E,4S)-4-[[(2S)-3-(4-fluorophenyl)-2-[(2S)-3-methyl-2-[(5-methyl-1,2-oxazole-3-carbonyl)amino]butanoyl]oxypropanoyl]amino]-6-[(3R)-2-oxopyrrolidin-3-yl]hex-2-enoate

> <PUBCHEM_IUPAC_SYSTEMATIC_NAME>
ethyl (E,4S)-4-[[(2S)-3-(4-fluorophenyl)-2-[(2S)-3-methyl-2-[(5-methyl-1,2-oxazol-3-yl)carbonylamino]butanoyl]oxy-propanoyl]amino]-6-[(3R)-2-oxidanylidenepyrrolidin-3-yl]hex-2-enoate

> <PUBCHEM_IUPAC_TRADITIONAL_NAME>
(E,4S)-4-[[(2S)-3-(4-fluorophenyl)-2-[(2S)-3-methyl-2-[(5-methylisoxazole-3-carbonyl)amino]butanoyl]oxy-propanoyl]amino]-6-[(3R)-2-ketopyrrolidin-3-yl]hex-2-enoic acid ethyl ester

> <PUBCHEM_IUPAC_INCHI>
InChI=1S/C31H39FN4O8/c1-5-42-26(37)13-12-23(11-8-21-14-15-33-28(21)38)34-30(40)25(17-20-6-9-22(32)10-7-20)43-31(41)27(18(2)3)35-29(39)24-16-19(4)44-36-24/h6-7,9-10,12-13,16,18,21,23,25,27H,5,8,11,14-15,17H2,1-4H3,(H,33,38)(H,34,40)(H,35,39)/b13-12+/t21-,23+,25+,27+/m1/s1

> <PUBCHEM_IUPAC_INCHIKEY>
LYLWUVIGOLKGNS-FXNVTSQKSA-N

> <PUBCHEM_XLOGP3_AA>
3.8

> <PUBCHEM_EXACT_MASS>
614.275192

> <PUBCHEM_MOLECULAR_FORMULA>
C31H39FN4O8

> <PUBCHEM_MOLECULAR_WEIGHT>
614.7

> <PUBCHEM_OPENEYE_CAN_SMILES>
CCOC(=O)C=CC(CCC1CCNC1=O)NC(=O)C(CC2=CC=C(C=C2)F)OC(=O)C(C(C)C)NC(=O)C3=NOC(=C3)C

> <PUBCHEM_OPENEYE_ISO_SMILES>
CCOC(=O)/C=C/[C@H](CC[C@@H]1CCNC1=O)NC(=O)[C@H](CC2=CC=C(C=C2)F)OC(=O)[C@H](C(C)C)NC(=O)C3=NOC(=C3)C

> <PUBCHEM_CACTVS_TPSA>
166

> <PUBCHEM_MONOISOTOPIC_WEIGHT>
614.275192

> <PUBCHEM_TOTAL_CHARGE>
0

> <PUBCHEM_HEAVY_ATOM_COUNT>
44

> <PUBCHEM_ATOM_DEF_STEREO_COUNT>
4

> <PUBCHEM_ATOM_UDEF_STEREO_COUNT>
0

> <PUBCHEM_BOND_DEF_STEREO_COUNT>
1

> <PUBCHEM_BOND_UDEF_STEREO_COUNT>
0

> <PUBCHEM_ISOTOPIC_ATOM_COUNT>
0

> <PUBCHEM_COMPONENT_COUNT>
1

> <PUBCHEM_CACTVS_TAUTO_COUNT>
-1

> <PUBCHEM_COORDINATE_TYPE>
1
5
255

> <PUBCHEM_BONDANNOTATIONS>
20  11  6
24  12  5
13  38  8
14  15  6
29  33  8
29  34  8
22  3  5
33  36  8
34  37  8
36  39  8
37  39  8
38  41  8
41  42  8
9  13  8
9  42  8

$$$$
102019608
  -OEChem-02212016592D

 84 86  0     1  0  0  0  0  0999 V2000
    6.3092   -4.8310    0.0000 F   0  0  0  0  0  0  0  0  0  0  0  0
   12.3994   -3.6098    0.0000 O   0  0  0  0  0  0  0  0  0  0  0  0
    8.0413   -1.8310    0.0000 O   0  0  0  0  0  0  0  0  0  0  0  0
    5.4432    0.6690    0.0000 O   0  0  0  0  0  0  0  0  0  0  0  0
   13.2375   -0.8310    0.0000 O   0  0  0  0  0  0  0  0  0  0  0  0
    6.3092    4.1690    0.0000 O   0  0  0  0  0  0  0  0  0  0  0  0
   12.3714    0.6690    0.0000 O   0  0  0  0  0  0  0  0  0  0  0  0
    3.4945    5.3714    0.0000 O   0  0  0  0  0  0  0  0  0  0  0  0
   11.1394   -4.8698    0.0000 N   0  0  0  0  0  0  0  0  0  0  0  0
    8.9073   -0.3310    0.0000 N   0  0  0  0  0  0  0  0  0  0  0  0
    7.1753    0.6690    0.0000 N   0  0  0  0  0  0  0  0  0  0  0  0
    5.4432    2.6690    0.0000 N   0  0  0  0  0  0  0  0  0  0  0  0
    4.4727    5.1635    0.0000 N   0  0  0  0  0  0  0  0  0  0  0  0
   10.6394   -3.3310    0.0000 C   0  0  2  0  0  0  0  0  0  0  0  0
   10.6394   -2.3310    0.0000 C   0  0  0  0  0  0  0  0  0  0  0  0
    9.8304   -3.9188    0.0000 C   0  0  0  0  0  0  0  0  0  0  0  0
    9.7734   -1.8310    0.0000 C   0  0  0  0  0  0  0  0  0  0  0  0
   10.1394   -4.8698    0.0000 C   0  0  0  0  0  0  0  0  0  0  0  0
   11.4484   -3.9188    0.0000 C   0  0  0  0  0  0  0  0  0  0  0  0
    9.7734   -0.8310    0.0000 C   0  0  1  0  0  0  0  0  0  0  0  0
    7.1753   -0.3310    0.0000 C   0  0  2  0  0  0  0  0  0  0  0  0
   10.6394   -0.3310    0.0000 C   0  0  0  0  0  0  0  0  0  0  0  0
    8.0413   -0.8310    0.0000 C   0  0  0  0  0  0  0  0  0  0  0  0
    6.3092    2.1690    0.0000 C   0  0  1  0  0  0  0  0  0  0  0  0
    6.3092   -0.8310    0.0000 C   0  0  0  0  0  0  0  0  0  0  0  0
    7.1753    2.6690    0.0000 C   0  0  0  0  0  0  0  0  0  0  0  0
    6.3092    1.1690    0.0000 C   0  0  0  0  0  0  0  0  0  0  0  0
   11.5054   -0.8310    0.0000 C   0  0  0  0  0  0  0  0  0  0  0  0
    6.3092   -1.8310    0.0000 C   0  0  0  0  0  0  0  0  0  0  0  0
    7.1753    3.6690    0.0000 C   0  0  0  0  0  0  0  0  0  0  0  0
    8.0413    2.1690    0.0000 C   0  0  0  0  0  0  0  0  0  0  0  0
    7.1753   -2.3310    0.0000 C   0  0  0  0  0  0  0  0  0  0  0  0
    5.4432   -2.3310    0.0000 C   0  0  0  0  0  0  0  0  0  0  0  0
    5.4432    3.6690    0.0000 C   0  0  0  0  0  0  0  0  0  0  0  0
   12.3714   -0.3310    0.0000 C   0  0  0  0  0  0  0  0  0  0  0  0
    7.1753   -3.3310    0.0000 C   0  0  0  0  0  0  0  0  0  0  0  0
    5.4432   -3.3310    0.0000 C   0  0  0  0  0  0  0  0  0  0  0  0
    4.5772    4.1690    0.0000 C   0  0  0  0  0  0  0  0  0  0  0  0
    6.3092   -3.8310    0.0000 C   0  0  0  0  0  0  0  0  0  0  0  0
    3.6636    3.7623    0.0000 C   0  0  0  0  0  0  0  0  0  0  0  0
   14.1035   -0.3310    0.0000 C   0  0  0  0  0  0  0  0  0  0  0  0
    2.9945    4.5054    0.0000 C   0  0  0  0  0  0  0  0  0  0  0  0
   14.9695   -0.8310    0.0000 C   0  0  0  0  0  0  0  0  0  0  0  0
    2.0000    4.4009    0.0000 C   0  0  0  0  0  0  0  0  0  0  0  0
   11.1918   -3.0495    0.0000 H   0  0  0  0  0  0  0  0  0  0  0  0
   11.2500   -2.4387    0.0000 H   0  0  0  0  0  0  0  0  0  0  0  0
   10.8514   -1.7484    0.0000 H   0  0  0  0  0  0  0  0  0  0  0  0
    9.5204   -3.3818    0.0000 H   0  0  0  0  0  0  0  0  0  0  0  0
    9.2640   -4.1710    0.0000 H   0  0  0  0  0  0  0  0  0  0  0  0
    9.1628   -1.7233    0.0000 H   0  0  0  0  0  0  0  0  0  0  0  0
    9.5613   -2.4136    0.0000 H   0  0  0  0  0  0  0  0  0  0  0  0
    9.5329   -4.9988    0.0000 H   0  0  0  0  0  0  0  0  0  0  0  0
   10.2042   -5.4864    0.0000 H   0  0  0  0  0  0  0  0  0  0  0  0
    9.7734   -0.2110    0.0000 H   0  0  0  0  0  0  0  0  0  0  0  0
   11.5038   -5.3714    0.0000 H   0  0  0  0  0  0  0  0  0  0  0  0
    8.9073    0.2890    0.0000 H   0  0  0  0  0  0  0  0  0  0  0  0
    7.7122   -0.0210    0.0000 H   0  0  0  0  0  0  0  0  0  0  0  0
   10.6394    0.2890    0.0000 H   0  0  0  0  0  0  0  0  0  0  0  0
    6.3092    2.7890    0.0000 H   0  0  0  0  0  0  0  0  0  0  0  0
    6.0972   -0.2484    0.0000 H   0  0  0  0  0  0  0  0  0  0  0  0
    5.6987   -0.9387    0.0000 H   0  0  0  0  0  0  0  0  0  0  0  0
    7.1753    2.0490    0.0000 H   0  0  0  0  0  0  0  0  0  0  0  0
    7.7122    0.9790    0.0000 H   0  0  0  0  0  0  0  0  0  0  0  0
   11.5054   -1.4510    0.0000 H   0  0  0  0  0  0  0  0  0  0  0  0
    7.7953    3.6690    0.0000 H   0  0  0  0  0  0  0  0  0  0  0  0
    7.1753    4.2890    0.0000 H   0  0  0  0  0  0  0  0  0  0  0  0
    6.5553    3.6690    0.0000 H   0  0  0  0  0  0  0  0  0  0  0  0
    7.7313    1.6321    0.0000 H   0  0  0  0  0  0  0  0  0  0  0  0
    8.5782    1.8590    0.0000 H   0  0  0  0  0  0  0  0  0  0  0  0
    8.3513    2.7059    0.0000 H   0  0  0  0  0  0  0  0  0  0  0  0
    4.9063    2.3590    0.0000 H   0  0  0  0  0  0  0  0  0  0  0  0
    7.7122   -2.0210    0.0000 H   0  0  0  0  0  0  0  0  0  0  0  0
    4.9063   -2.0210    0.0000 H   0  0  0  0  0  0  0  0  0  0  0  0
    7.7122   -3.6410    0.0000 H   0  0  0  0  0  0  0  0  0  0  0  0
    4.9063   -3.6410    0.0000 H   0  0  0  0  0  0  0  0  0  0  0  0
    3.5348    3.1558    0.0000 H   0  0  0  0  0  0  0  0  0  0  0  0
   14.5020    0.1439    0.0000 H   0  0  0  0  0  0  0  0  0  0  0  0
   13.7049    0.1439    0.0000 H   0  0  0  0  0  0  0  0  0  0  0  0
   14.6595   -1.3679    0.0000 H   0  0  0  0  0  0  0  0  0  0  0  0
   15.5064   -1.1410    0.0000 H   0  0  0  0  0  0  0  0  0  0  0  0
   15.2795   -0.2941    0.0000 H   0  0  0  0  0  0  0  0  0  0  0  0
    1.9352    5.0175    0.0000 H   0  0  0  0  0  0  0  0  0  0  0  0
    1.3834    4.3361    0.0000 H   0  0  0  0  0  0  0  0  0  0  0  0
    2.0648    3.7843    0.0000 H   0  0  0  0  0  0  0  0  0  0  0  0
  1 39  1  0  0  0  0
  2 19  2  0  0  0  0
  3 23  2  0  0  0  0
  4 27  2  0  0  0  0
  5 35  1  0  0  0  0
  5 41  1  0  0  0  0
  6 34  2  0  0  0  0
  7 35  2  0  0  0  0
  8 13  1  0  0  0  0
  8 42  1  0  0  0  0
  9 18  1  0  0  0  0
  9 19  1  0  0  0  0
  9 55  1  0  0  0  0
 20 10  1  6  0  0  0
 10 23  1  0  0  0  0
 10 56  1  0  0  0  0
 21 11  1  6  0  0  0
 11 27  1  0  0  0  0
 11 63  1  0  0  0  0
 24 12  1  1  0  0  0
 12 34  1  0  0  0  0
 12 71  1  0  0  0  0
 13 38  2  0  0  0  0
 14 15  1  1  0  0  0
 14 16  1  0  0  0  0
 14 19  1  0  0  0  0
 14 45  1  0  0  0  0
 15 17  1  0  0  0  0
 15 46  1  0  0  0  0
 15 47  1  0  0  0  0
 16 18  1  0  0  0  0
 16 48  1  0  0  0  0
 16 49  1  0  0  0  0
 17 20  1  0  0  0  0
 17 50  1  0  0  0  0
 17 51  1  0  0  0  0
 18 52  1  0  0  0  0
 18 53  1  0  0  0  0
 20 22  1  0  0  0  0
 20 54  1  0  0  0  0
 21 23  1  0  0  0  0
 21 25  1  0  0  0  0
 21 57  1  0  0  0  0
 22 28  2  0  0  0  0
 22 58  1  0  0  0  0
 24 26  1  0  0  0  0
 24 27  1  0  0  0  0
 24 59  1  0  0  0  0
 25 29  1  0  0  0  0
 25 60  1  0  0  0  0
 25 61  1  0  0  0  0
 26 30  1  0  0  0  0
 26 31  1  0  0  0  0
 26 62  1  0  0  0  0
 28 35  1  0  0  0  0
 28 64  1  0  0  0  0
 29 32  2  0  0  0  0
 29 33  1  0  0  0  0
 30 65  1  0  0  0  0
 30 66  1  0  0  0  0
 30 67  1  0  0  0  0
 31 68  1  0  0  0  0
 31 69  1  0  0  0  0
 31 70  1  0  0  0  0
 32 36  1  0  0  0  0
 32 72  1  0  0  0  0
 33 37  2  0  0  0  0
 33 73  1  0  0  0  0
 34 38  1  0  0  0  0
 36 39  2  0  0  0  0
 36 74  1  0  0  0  0
 37 39  1  0  0  0  0
 37 75  1  0  0  0  0
 38 40  1  0  0  0  0
 40 42  2  0  0  0  0
 40 76  1  0  0  0  0
 41 43  1  0  0  0  0
 41 77  1  0  0  0  0
 41 78  1  0  0  0  0
 42 44  1  0  0  0  0
 43 79  1  0  0  0  0
 43 80  1  0  0  0  0
 43 81  1  0  0  0  0
 44 82  1  0  0  0  0
 44 83  1  0  0  0  0
 44 84  1  0  0  0  0
M  END
> <PUBCHEM_COMPOUND_CID>
102019608

> <PUBCHEM_COMPOUND_CANONICALIZED>
1

> <PUBCHEM_CACTVS_COMPLEXITY>
1030

> <PUBCHEM_CACTVS_HBOND_ACCEPTOR>
9

> <PUBCHEM_CACTVS_HBOND_DONOR>
4

> <PUBCHEM_CACTVS_ROTATABLE_BOND>
16

> <PUBCHEM_CACTVS_SUBSKEYS>
AAADcfB7uQAAAAAAAAAAAAAAAAAAAWLAAAAwAAAAAAAAAAABwAAAHwAUAAAADSzhng4yjJLQBACpA6XyWgCCAAAmIgAomKG+bNoIZjqAtbOWMYhmlhiI6cc/iYCeAAAAAAAAAAAAAAAAAAAAAAAAAAAAAA==

> <PUBCHEM_IUPAC_OPENEYE_NAME>
ethyl (E,4S)-4-[[(2S)-3-(4-fluorophenyl)-2-[[(2S)-3-methyl-2-[(5-methylisoxazole-3-carbonyl)amino]butanoyl]amino]propanoyl]amino]-6-[(3R)-2-oxopyrrolidin-3-yl]hex-2-enoate

> <PUBCHEM_IUPAC_CAS_NAME>
(E,4S)-4-[[(2S)-3-(4-fluorophenyl)-2-[[(2S)-3-methyl-2-[[(5-methyl-3-isoxazolyl)-oxomethyl]amino]-1-oxobutyl]amino]-1-oxopropyl]amino]-6-[(3R)-2-oxo-3-pyrrolidinyl]-2-hexenoic acid ethyl ester

> <PUBCHEM_IUPAC_NAME_MARKUP>
ethyl (<I>E</I>,4<I>S</I>)-4-[[(2<I>S</I>)-3-(4-fluorophenyl)-2-[[(2<I>S</I>)-3-methyl-2-[(5-methyl-1,2-oxazole-3-carbonyl)amino]butanoyl]amino]propanoyl]amino]-6-[(3<I>R</I>)-2-oxopyrrolidin-3-yl]hex-2-enoate

> <PUBCHEM_IUPAC_NAME>
ethyl (E,4S)-4-[[(2S)-3-(4-fluorophenyl)-2-[[(2S)-3-methyl-2-[(5-methyl-1,2-oxazole-3-carbonyl)amino]butanoyl]amino]propanoyl]amino]-6-[(3R)-2-oxopyrrolidin-3-yl]hex-2-enoate

> <PUBCHEM_IUPAC_SYSTEMATIC_NAME>
ethyl (E,4S)-4-[[(2S)-3-(4-fluorophenyl)-2-[[(2S)-3-methyl-2-[(5-methyl-1,2-oxazol-3-yl)carbonylamino]butanoyl]amino]propanoyl]amino]-6-[(3R)-2-oxidanylidenepyrrolidin-3-yl]hex-2-enoate

> <PUBCHEM_IUPAC_TRADITIONAL_NAME>
(E,4S)-4-[[(2S)-3-(4-fluorophenyl)-2-[[(2S)-3-methyl-2-[(5-methylisoxazole-3-carbonyl)amino]butanoyl]amino]propanoyl]amino]-6-[(3R)-2-ketopyrrolidin-3-yl]hex-2-enoic acid ethyl ester

> <PUBCHEM_IUPAC_INCHI>
InChI=1S/C31H40FN5O7/c1-5-43-26(38)13-12-23(11-8-21-14-15-33-28(21)39)34-29(40)24(17-20-6-9-22(32)10-7-20)35-31(42)27(18(2)3)36-30(41)25-16-19(4)44-37-25/h6-7,9-10,12-13,16,18,21,23-24,27H,5,8,11,14-15,17H2,1-4H3,(H,33,39)(H,34,40)(H,35,42)(H,36,41)/b13-12+/t21-,23+,24+,27+/m1/s1

> <PUBCHEM_IUPAC_INCHIKEY>
RXWOYPUZEVNWNJ-FACAOOLASA-N

> <PUBCHEM_XLOGP3_AA>
3.2

> <PUBCHEM_EXACT_MASS>
613.291177

> <PUBCHEM_MOLECULAR_FORMULA>
C31H40FN5O7

> <PUBCHEM_MOLECULAR_WEIGHT>
613.7

> <PUBCHEM_OPENEYE_CAN_SMILES>
CCOC(=O)C=CC(CCC1CCNC1=O)NC(=O)C(CC2=CC=C(C=C2)F)NC(=O)C(C(C)C)NC(=O)C3=NOC(=C3)C

> <PUBCHEM_OPENEYE_ISO_SMILES>
CCOC(=O)/C=C/[C@H](CC[C@@H]1CCNC1=O)NC(=O)[C@H](CC2=CC=C(C=C2)F)NC(=O)[C@H](C(C)C)NC(=O)C3=NOC(=C3)C

> <PUBCHEM_CACTVS_TPSA>
169

> <PUBCHEM_MONOISOTOPIC_WEIGHT>
613.291177

> <PUBCHEM_TOTAL_CHARGE>
0

> <PUBCHEM_HEAVY_ATOM_COUNT>
44

> <PUBCHEM_ATOM_DEF_STEREO_COUNT>
4

> <PUBCHEM_ATOM_UDEF_STEREO_COUNT>
0

> <PUBCHEM_BOND_DEF_STEREO_COUNT>
1

> <PUBCHEM_BOND_UDEF_STEREO_COUNT>
0

> <PUBCHEM_ISOTOPIC_ATOM_COUNT>
0

> <PUBCHEM_COMPONENT_COUNT>
1

> <PUBCHEM_CACTVS_TAUTO_COUNT>
-1

> <PUBCHEM_COORDINATE_TYPE>
1
5
255

> <PUBCHEM_BONDANNOTATIONS>
20  10  6
21  11  6
24  12  5
13  38  8
14  15  5
29  32  8
29  33  8
32  36  8
33  37  8
36  39  8
37  39  8
38  40  8
40  42  8
8  13  8
8  42  8

$$$$
102019610
  -OEChem-02212016592D

 83 85  0     1  0  0  0  0  0999 V2000
    6.7974   -5.2500    0.0000 F   0  0  0  0  0  0  0  0  0  0  0  0
    8.5294    0.7500    0.0000 O   0  0  0  0  0  0  0  0  0  0  0  0
    3.0778    1.6349    0.0000 O   0  0  0  0  0  0  0  0  0  0  0  0
    9.3954    0.2500    0.0000 O   0  0  0  0  0  0  0  0  0  0  0  0
    5.0653    3.7500    0.0000 O   0  0  0  0  0  0  0  0  0  0  0  0
   11.9935   -2.2500    0.0000 O   0  0  0  0  0  0  0  0  0  0  0  0
    6.7974    3.7500    0.0000 O   0  0  0  0  0  0  0  0  0  0  0  0
   14.4422   -0.4136    0.0000 O   0  0  0  0  0  0  0  0  0  0  0  0
    2.6166   -0.0864    0.0000 N   0  0  0  0  0  0  0  0  0  0  0  0
   11.1275   -0.7500    0.0000 N   0  0  0  0  0  0  0  0  0  0  0  0
   13.7731   -1.1567    0.0000 N   0  0  0  0  0  0  0  0  0  0  0  0
    4.1993    0.2500    0.0000 C   0  0  2  0  0  0  0  0  0  0  0  0
    5.0653    0.7500    0.0000 C   0  0  0  0  0  0  0  0  0  0  0  0
    5.9313    0.2500    0.0000 C   0  0  0  0  0  0  0  0  0  0  0  0
    6.7974    0.7500    0.0000 C   0  0  2  0  0  0  0  0  0  0  0  0
    4.0948   -0.7445    0.0000 C   0  0  0  0  0  0  0  0  0  0  0  0
    7.6634   -0.7500    0.0000 C   0  0  1  0  0  0  0  0  0  0  0  0
    3.1166   -0.9524    0.0000 C   0  0  0  0  0  0  0  0  0  0  0  0
    7.6634    0.2500    0.0000 C   0  0  0  0  0  0  0  0  0  0  0  0
    3.2857    0.6567    0.0000 C   0  0  0  0  0  0  0  0  0  0  0  0
    8.5294   -1.2500    0.0000 C   0  0  0  0  0  0  0  0  0  0  0  0
    6.7974   -1.2500    0.0000 C   0  0  0  0  0  0  0  0  0  0  0  0
   10.2615   -1.2500    0.0000 C   0  0  2  0  0  0  0  0  0  0  0  0
    9.3954   -0.7500    0.0000 C   0  0  0  0  0  0  0  0  0  0  0  0
    6.7974    1.7500    0.0000 C   0  0  0  0  0  0  0  0  0  0  0  0
   10.2615   -2.2500    0.0000 C   0  0  0  0  0  0  0  0  0  0  0  0
    6.7974   -2.2500    0.0000 C   0  0  0  0  0  0  0  0  0  0  0  0
   11.1275   -2.7500    0.0000 C   0  0  0  0  0  0  0  0  0  0  0  0
    9.3954   -2.7500    0.0000 C   0  0  0  0  0  0  0  0  0  0  0  0
    5.9313    2.2500    0.0000 C   0  0  0  0  0  0  0  0  0  0  0  0
    7.6634   -2.7500    0.0000 C   0  0  0  0  0  0  0  0  0  0  0  0
    5.9313   -2.7500    0.0000 C   0  0  0  0  0  0  0  0  0  0  0  0
   11.9935   -1.2500    0.0000 C   0  0  0  0  0  0  0  0  0  0  0  0
    7.6634   -3.7500    0.0000 C   0  0  0  0  0  0  0  0  0  0  0  0
    5.9313   -3.7500    0.0000 C   0  0  0  0  0  0  0  0  0  0  0  0
    5.9313    3.2500    0.0000 C   0  0  0  0  0  0  0  0  0  0  0  0
    6.7974   -4.2500    0.0000 C   0  0  0  0  0  0  0  0  0  0  0  0
   12.8595   -0.7500    0.0000 C   0  0  0  0  0  0  0  0  0  0  0  0
   12.9641    0.2445    0.0000 C   0  0  0  0  0  0  0  0  0  0  0  0
    5.0653    4.7500    0.0000 C   0  0  0  0  0  0  0  0  0  0  0  0
   13.9422    0.4524    0.0000 C   0  0  0  0  0  0  0  0  0  0  0  0
   14.3489    1.3660    0.0000 C   0  0  0  0  0  0  0  0  0  0  0  0
    4.1993    5.2500    0.0000 C   0  0  0  0  0  0  0  0  0  0  0  0
    4.1668    0.8692    0.0000 H   0  0  0  0  0  0  0  0  0  0  0  0
    5.4638    1.2250    0.0000 H   0  0  0  0  0  0  0  0  0  0  0  0
    4.6668    1.2250    0.0000 H   0  0  0  0  0  0  0  0  0  0  0  0
    5.5328   -0.2249    0.0000 H   0  0  0  0  0  0  0  0  0  0  0  0
    6.3299   -0.2249    0.0000 H   0  0  0  0  0  0  0  0  0  0  0  0
    6.2604    1.0600    0.0000 H   0  0  0  0  0  0  0  0  0  0  0  0
    4.1596   -1.3611    0.0000 H   0  0  0  0  0  0  0  0  0  0  0  0
    4.7148   -0.7445    0.0000 H   0  0  0  0  0  0  0  0  0  0  0  0
    7.6634   -1.3700    0.0000 H   0  0  0  0  0  0  0  0  0  0  0  0
    2.5502   -1.2046    0.0000 H   0  0  0  0  0  0  0  0  0  0  0  0
    3.3082   -1.5421    0.0000 H   0  0  0  0  0  0  0  0  0  0  0  0
    8.1309   -1.7250    0.0000 H   0  0  0  0  0  0  0  0  0  0  0  0
    8.9279   -1.7250    0.0000 H   0  0  0  0  0  0  0  0  0  0  0  0
    6.5853   -0.6674    0.0000 H   0  0  0  0  0  0  0  0  0  0  0  0
    6.1868   -1.3577    0.0000 H   0  0  0  0  0  0  0  0  0  0  0  0
    2.0000   -0.0216    0.0000 H   0  0  0  0  0  0  0  0  0  0  0  0
   10.2615   -0.6300    0.0000 H   0  0  0  0  0  0  0  0  0  0  0  0
    7.3343    2.0600    0.0000 H   0  0  0  0  0  0  0  0  0  0  0  0
   10.7984   -1.9400    0.0000 H   0  0  0  0  0  0  0  0  0  0  0  0
   11.1275   -0.1300    0.0000 H   0  0  0  0  0  0  0  0  0  0  0  0
   10.8175   -3.2869    0.0000 H   0  0  0  0  0  0  0  0  0  0  0  0
   11.6644   -3.0600    0.0000 H   0  0  0  0  0  0  0  0  0  0  0  0
   11.4375   -2.2131    0.0000 H   0  0  0  0  0  0  0  0  0  0  0  0
    9.0854   -2.2131    0.0000 H   0  0  0  0  0  0  0  0  0  0  0  0
    8.8585   -3.0600    0.0000 H   0  0  0  0  0  0  0  0  0  0  0  0
    9.7054   -3.2869    0.0000 H   0  0  0  0  0  0  0  0  0  0  0  0
    5.3944    1.9400    0.0000 H   0  0  0  0  0  0  0  0  0  0  0  0
    8.2003   -2.4400    0.0000 H   0  0  0  0  0  0  0  0  0  0  0  0
    5.3944   -2.4400    0.0000 H   0  0  0  0  0  0  0  0  0  0  0  0
    8.2003   -4.0600    0.0000 H   0  0  0  0  0  0  0  0  0  0  0  0
    5.3944   -4.0600    0.0000 H   0  0  0  0  0  0  0  0  0  0  0  0
   12.5033    0.6594    0.0000 H   0  0  0  0  0  0  0  0  0  0  0  0
    5.6759    4.6423    0.0000 H   0  0  0  0  0  0  0  0  0  0  0  0
    5.2774    5.3326    0.0000 H   0  0  0  0  0  0  0  0  0  0  0  0
   14.9153    1.1138    0.0000 H   0  0  0  0  0  0  0  0  0  0  0  0
   14.6011    1.9324    0.0000 H   0  0  0  0  0  0  0  0  0  0  0  0
   13.7825    1.6182    0.0000 H   0  0  0  0  0  0  0  0  0  0  0  0
    4.5093    5.7869    0.0000 H   0  0  0  0  0  0  0  0  0  0  0  0
    3.6623    5.5600    0.0000 H   0  0  0  0  0  0  0  0  0  0  0  0
    3.8893    4.7131    0.0000 H   0  0  0  0  0  0  0  0  0  0  0  0
  1 37  1  0  0  0  0
  2 19  2  0  0  0  0
  3 20  2  0  0  0  0
  4 24  2  0  0  0  0
  5 36  1  0  0  0  0
  5 40  1  0  0  0  0
  6 33  2  0  0  0  0
  7 36  2  0  0  0  0
  8 11  1  0  0  0  0
  8 41  1  0  0  0  0
  9 18  1  0  0  0  0
  9 20  1  0  0  0  0
  9 59  1  0  0  0  0
 23 10  1  1  0  0  0
 10 33  1  0  0  0  0
 10 63  1  0  0  0  0
 11 38  2  0  0  0  0
 12 13  1  6  0  0  0
 12 16  1  0  0  0  0
 12 20  1  0  0  0  0
 12 44  1  0  0  0  0
 13 14  1  0  0  0  0
 13 45  1  0  0  0  0
 13 46  1  0  0  0  0
 15 14  1  1  0  0  0
 14 47  1  0  0  0  0
 14 48  1  0  0  0  0
 15 19  1  0  0  0  0
 15 25  1  0  0  0  0
 15 49  1  0  0  0  0
 16 18  1  0  0  0  0
 16 50  1  0  0  0  0
 16 51  1  0  0  0  0
 17 19  1  0  0  0  0
 17 21  1  1  0  0  0
 17 22  1  0  0  0  0
 17 52  1  0  0  0  0
 18 53  1  0  0  0  0
 18 54  1  0  0  0  0
 21 24  1  0  0  0  0
 21 55  1  0  0  0  0
 21 56  1  0  0  0  0
 22 27  1  0  0  0  0
 22 57  1  0  0  0  0
 22 58  1  0  0  0  0
 23 24  1  0  0  0  0
 23 26  1  0  0  0  0
 23 60  1  0  0  0  0
 25 30  2  0  0  0  0
 25 61  1  0  0  0  0
 26 28  1  0  0  0  0
 26 29  1  0  0  0  0
 26 62  1  0  0  0  0
 27 31  2  0  0  0  0
 27 32  1  0  0  0  0
 28 64  1  0  0  0  0
 28 65  1  0  0  0  0
 28 66  1  0  0  0  0
 29 67  1  0  0  0  0
 29 68  1  0  0  0  0
 29 69  1  0  0  0  0
 30 36  1  0  0  0  0
 30 70  1  0  0  0  0
 31 34  1  0  0  0  0
 31 71  1  0  0  0  0
 32 35  2  0  0  0  0
 32 72  1  0  0  0  0
 33 38  1  0  0  0  0
 34 37  2  0  0  0  0
 34 73  1  0  0  0  0
 35 37  1  0  0  0  0
 35 74  1  0  0  0  0
 38 39  1  0  0  0  0
 39 41  2  0  0  0  0
 39 75  1  0  0  0  0
 40 43  1  0  0  0  0
 40 76  1  0  0  0  0
 40 77  1  0  0  0  0
 41 42  1  0  0  0  0
 42 78  1  0  0  0  0
 42 79  1  0  0  0  0
 42 80  1  0  0  0  0
 43 81  1  0  0  0  0
 43 82  1  0  0  0  0
 43 83  1  0  0  0  0
M  END
> <PUBCHEM_COMPOUND_CID>
102019610

> <PUBCHEM_COMPOUND_CANONICALIZED>
1

> <PUBCHEM_CACTVS_COMPLEXITY>
1010

> <PUBCHEM_CACTVS_HBOND_ACCEPTOR>
9

> <PUBCHEM_CACTVS_HBOND_DONOR>
2

> <PUBCHEM_CACTVS_ROTATABLE_BOND>
17

> <PUBCHEM_CACTVS_SUBSKEYS>
AAADcfB/OQAAAAAAAAAAAAAAAAAAAWLAAAAwAAAAAAAAAAABwAAAHwAUAAAADSzhng4yjJLQBACpA6XyWgCCAAAmIgAomKG+bNoIZjqAtbOWMYhmlhiI6cc/icCeAAAAAAAAAAAAAAAAAAAAAAAAAAAAAA==

> <PUBCHEM_IUPAC_OPENEYE_NAME>
ethyl (E,4S,6R,9S)-6-[(4-fluorophenyl)methyl]-10-methyl-9-[(5-methylisoxazole-3-carbonyl)amino]-5,8-dioxo-4-[2-[(3R)-2-oxopyrrolidin-3-yl]ethyl]undec-2-enoate

> <PUBCHEM_IUPAC_CAS_NAME>
(E,4S,6R,9S)-6-[(4-fluorophenyl)methyl]-10-methyl-9-[[(5-methyl-3-isoxazolyl)-oxomethyl]amino]-5,8-dioxo-4-[2-[(3R)-2-oxo-3-pyrrolidinyl]ethyl]-2-undecenoic acid ethyl ester

> <PUBCHEM_IUPAC_NAME_MARKUP>
ethyl (<I>E</I>,4<I>S</I>,6<I>R</I>,9<I>S</I>)-6-[(4-fluorophenyl)methyl]-10-methyl-9-[(5-methyl-1,2-oxazole-3-carbonyl)amino]-5,8-dioxo-4-[2-[(3<I>R</I>)-2-oxopyrrolidin-3-yl]ethyl]undec-2-enoate

> <PUBCHEM_IUPAC_NAME>
ethyl (E,4S,6R,9S)-6-[(4-fluorophenyl)methyl]-10-methyl-9-[(5-methyl-1,2-oxazole-3-carbonyl)amino]-5,8-dioxo-4-[2-[(3R)-2-oxopyrrolidin-3-yl]ethyl]undec-2-enoate

> <PUBCHEM_IUPAC_SYSTEMATIC_NAME>
ethyl (E,4S,6R,9S)-6-[(4-fluorophenyl)methyl]-10-methyl-9-[(5-methyl-1,2-oxazol-3-yl)carbonylamino]-5,8-bis(oxidanylidene)-4-[2-[(3R)-2-oxidanylidenepyrrolidin-3-yl]ethyl]undec-2-enoate

> <PUBCHEM_IUPAC_TRADITIONAL_NAME>
(E,4S,6R,9S)-6-(4-fluorobenzyl)-5,8-diketo-4-[2-[(3R)-2-ketopyrrolidin-3-yl]ethyl]-10-methyl-9-[(5-methylisoxazole-3-carbonyl)amino]undec-2-enoic acid ethyl ester

> <PUBCHEM_IUPAC_INCHI>
InChI=1S/C32H40FN3O7/c1-5-42-28(38)13-10-22(8-9-23-14-15-34-31(23)40)30(39)24(17-21-6-11-25(33)12-7-21)18-27(37)29(19(2)3)35-32(41)26-16-20(4)43-36-26/h6-7,10-13,16,19,22-24,29H,5,8-9,14-15,17-18H2,1-4H3,(H,34,40)(H,35,41)/b13-10+/t22-,23+,24+,29-/m0/s1

> <PUBCHEM_IUPAC_INCHIKEY>
VUIPQZPJQIYEOJ-KYQWPLCFSA-N

> <PUBCHEM_XLOGP3_AA>
4

> <PUBCHEM_EXACT_MASS>
597.285029

> <PUBCHEM_MOLECULAR_FORMULA>
C32H40FN3O7

> <PUBCHEM_MOLECULAR_WEIGHT>
597.7

> <PUBCHEM_OPENEYE_CAN_SMILES>
CCOC(=O)C=CC(CCC1CCNC1=O)C(=O)C(CC2=CC=C(C=C2)F)CC(=O)C(C(C)C)NC(=O)C3=NOC(=C3)C

> <PUBCHEM_OPENEYE_ISO_SMILES>
CCOC(=O)/C=C/[C@H](CC[C@@H]1CCNC1=O)C(=O)[C@H](CC2=CC=C(C=C2)F)CC(=O)[C@H](C(C)C)NC(=O)C3=NOC(=C3)C

> <PUBCHEM_CACTVS_TPSA>
145

> <PUBCHEM_MONOISOTOPIC_WEIGHT>
597.285029

> <PUBCHEM_TOTAL_CHARGE>
0

> <PUBCHEM_HEAVY_ATOM_COUNT>
43

> <PUBCHEM_ATOM_DEF_STEREO_COUNT>
4

> <PUBCHEM_ATOM_UDEF_STEREO_COUNT>
0

> <PUBCHEM_BOND_DEF_STEREO_COUNT>
1

> <PUBCHEM_BOND_UDEF_STEREO_COUNT>
0

> <PUBCHEM_ISOTOPIC_ATOM_COUNT>
0

> <PUBCHEM_COMPONENT_COUNT>
1

> <PUBCHEM_CACTVS_TAUTO_COUNT>
-1

> <PUBCHEM_COORDINATE_TYPE>
1
5
255

> <PUBCHEM_BONDANNOTATIONS>
23  10  5
11  38  8
12  13  6
15  14  5
17  21  5
27  31  8
27  32  8
31  34  8
32  35  8
34  37  8
35  37  8
38  39  8
39  41  8
8  11  8
8  41  8

$$$$
102021036
  -OEChem-02212016592D

 83 85  0     1  0  0  0  0  0999 V2000
    3.7320   -5.1012    0.0000 F   0  0  0  0  0  0  0  0  0  0  0  0
    7.4236   -4.2649    0.0000 O   0  0  0  0  0  0  0  0  0  0  0  0
    2.8660    0.3988    0.0000 O   0  0  0  0  0  0  0  0  0  0  0  0
    9.7942    0.3988    0.0000 O   0  0  0  0  0  0  0  0  0  0  0  0
    3.7320    3.8988    0.0000 O   0  0  0  0  0  0  0  0  0  0  0  0
    8.9282    1.8988    0.0000 O   0  0  0  0  0  0  0  0  0  0  0  0
    6.5468    5.1012    0.0000 O   0  0  0  0  0  0  0  0  0  0  0  0
    6.3301   -0.6012    0.0000 N   0  0  0  0  0  0  0  0  0  0  0  0
    9.1448   -3.8036    0.0000 N   0  0  0  0  0  0  0  0  0  0  0  0
    4.5981    2.3988    0.0000 N   0  0  0  0  0  0  0  0  0  0  0  0
    5.5686    4.8933    0.0000 N   0  0  0  0  0  0  0  0  0  0  0  0
    8.0622   -2.6012    0.0000 C   0  0  2  0  0  0  0  0  0  0  0  0
    7.1962   -2.1012    0.0000 C   0  0  0  0  0  0  0  0  0  0  0  0
    4.5981   -0.6012    0.0000 C   0  0  1  0  0  0  0  0  0  0  0  0
    7.1962   -1.1012    0.0000 C   0  0  1  0  0  0  0  0  0  0  0  0
    8.9757   -2.1945    0.0000 C   0  0  0  0  0  0  0  0  0  0  0  0
    5.4641   -1.1012    0.0000 C   0  0  0  0  0  0  0  0  0  0  0  0
    4.5981    0.3988    0.0000 C   0  0  0  0  0  0  0  0  0  0  0  0
    9.6448   -2.9376    0.0000 C   0  0  0  0  0  0  0  0  0  0  0  0
    8.1667   -3.5957    0.0000 C   0  0  0  0  0  0  0  0  0  0  0  0
    3.7320   -1.1012    0.0000 C   0  0  0  0  0  0  0  0  0  0  0  0
    3.7320    1.8988    0.0000 C   0  0  2  0  0  0  0  0  0  0  0  0
    3.7320    0.8988    0.0000 C   0  0  0  0  0  0  0  0  0  0  0  0
    8.0622   -0.6012    0.0000 C   0  0  0  0  0  0  0  0  0  0  0  0
    2.8660    2.3988    0.0000 C   0  0  0  0  0  0  0  0  0  0  0  0
    3.7320   -2.1012    0.0000 C   0  0  0  0  0  0  0  0  0  0  0  0
    2.8660    3.3988    0.0000 C   0  0  0  0  0  0  0  0  0  0  0  0
    2.0000    1.8988    0.0000 C   0  0  0  0  0  0  0  0  0  0  0  0
    8.0622    0.3988    0.0000 C   0  0  0  0  0  0  0  0  0  0  0  0
    4.5981   -2.6012    0.0000 C   0  0  0  0  0  0  0  0  0  0  0  0
    2.8660   -2.6012    0.0000 C   0  0  0  0  0  0  0  0  0  0  0  0
    4.5981    3.3988    0.0000 C   0  0  0  0  0  0  0  0  0  0  0  0
    4.5981   -3.6012    0.0000 C   0  0  0  0  0  0  0  0  0  0  0  0
    2.8660   -3.6012    0.0000 C   0  0  0  0  0  0  0  0  0  0  0  0
    8.9282    0.8988    0.0000 C   0  0  0  0  0  0  0  0  0  0  0  0
    3.7320   -4.1012    0.0000 C   0  0  0  0  0  0  0  0  0  0  0  0
    5.4641    3.8988    0.0000 C   0  0  0  0  0  0  0  0  0  0  0  0
    6.3776    3.4920    0.0000 C   0  0  0  0  0  0  0  0  0  0  0  0
    7.0468    4.2352    0.0000 C   0  0  0  0  0  0  0  0  0  0  0  0
   10.6603    0.8988    0.0000 C   0  0  0  0  0  0  0  0  0  0  0  0
    8.0413    4.1307    0.0000 C   0  0  0  0  0  0  0  0  0  0  0  0
   11.5263    0.3988    0.0000 C   0  0  0  0  0  0  0  0  0  0  0  0
    8.0946   -1.9821    0.0000 H   0  0  0  0  0  0  0  0  0  0  0  0
    6.5856   -1.9936    0.0000 H   0  0  0  0  0  0  0  0  0  0  0  0
    6.9841   -2.6838    0.0000 H   0  0  0  0  0  0  0  0  0  0  0  0
    4.5981   -1.2212    0.0000 H   0  0  0  0  0  0  0  0  0  0  0  0
    6.6592   -1.4112    0.0000 H   0  0  0  0  0  0  0  0  0  0  0  0
    9.4773   -1.8300    0.0000 H   0  0  0  0  0  0  0  0  0  0  0  0
    8.6657   -1.6575    0.0000 H   0  0  0  0  0  0  0  0  0  0  0  0
    5.0656   -1.5762    0.0000 H   0  0  0  0  0  0  0  0  0  0  0  0
    5.8626   -1.5762    0.0000 H   0  0  0  0  0  0  0  0  0  0  0  0
    5.2087    0.2911    0.0000 H   0  0  0  0  0  0  0  0  0  0  0  0
    4.8101    0.9814    0.0000 H   0  0  0  0  0  0  0  0  0  0  0  0
    6.3301    0.0188    0.0000 H   0  0  0  0  0  0  0  0  0  0  0  0
   10.1464   -3.3020    0.0000 H   0  0  0  0  0  0  0  0  0  0  0  0
   10.0597   -2.4769    0.0000 H   0  0  0  0  0  0  0  0  0  0  0  0
    3.5200   -0.5186    0.0000 H   0  0  0  0  0  0  0  0  0  0  0  0
    3.1215   -1.2089    0.0000 H   0  0  0  0  0  0  0  0  0  0  0  0
    9.3970   -4.3700    0.0000 H   0  0  0  0  0  0  0  0  0  0  0  0
    3.7320    2.5188    0.0000 H   0  0  0  0  0  0  0  0  0  0  0  0
    8.5991   -0.9112    0.0000 H   0  0  0  0  0  0  0  0  0  0  0  0
    2.8660    1.7788    0.0000 H   0  0  0  0  0  0  0  0  0  0  0  0
    5.1350    2.0888    0.0000 H   0  0  0  0  0  0  0  0  0  0  0  0
    3.4860    3.3988    0.0000 H   0  0  0  0  0  0  0  0  0  0  0  0
    2.8660    4.0188    0.0000 H   0  0  0  0  0  0  0  0  0  0  0  0
    2.2460    3.3988    0.0000 H   0  0  0  0  0  0  0  0  0  0  0  0
    1.6900    2.4357    0.0000 H   0  0  0  0  0  0  0  0  0  0  0  0
    1.4631    1.5888    0.0000 H   0  0  0  0  0  0  0  0  0  0  0  0
    2.3100    1.3618    0.0000 H   0  0  0  0  0  0  0  0  0  0  0  0
    7.5252    0.7088    0.0000 H   0  0  0  0  0  0  0  0  0  0  0  0
    5.1350   -2.2912    0.0000 H   0  0  0  0  0  0  0  0  0  0  0  0
    2.3291   -2.2912    0.0000 H   0  0  0  0  0  0  0  0  0  0  0  0
    5.1350   -3.9112    0.0000 H   0  0  0  0  0  0  0  0  0  0  0  0
    2.3291   -3.9112    0.0000 H   0  0  0  0  0  0  0  0  0  0  0  0
    6.5066    2.8856    0.0000 H   0  0  0  0  0  0  0  0  0  0  0  0
   11.0588    1.3737    0.0000 H   0  0  0  0  0  0  0  0  0  0  0  0
   10.2617    1.3737    0.0000 H   0  0  0  0  0  0  0  0  0  0  0  0
    7.9765    3.5141    0.0000 H   0  0  0  0  0  0  0  0  0  0  0  0
    8.6579    4.0659    0.0000 H   0  0  0  0  0  0  0  0  0  0  0  0
    8.1061    4.7473    0.0000 H   0  0  0  0  0  0  0  0  0  0  0  0
   11.2163   -0.1382    0.0000 H   0  0  0  0  0  0  0  0  0  0  0  0
   12.0632    0.0888    0.0000 H   0  0  0  0  0  0  0  0  0  0  0  0
   11.8363    0.9357    0.0000 H   0  0  0  0  0  0  0  0  0  0  0  0
  1 36  1  0  0  0  0
  2 20  2  0  0  0  0
  3 23  2  0  0  0  0
  4 35  1  0  0  0  0
  4 40  1  0  0  0  0
  5 32  2  0  0  0  0
  6 35  2  0  0  0  0
  7 11  1  0  0  0  0
  7 39  1  0  0  0  0
 15  8  1  6  0  0  0
  8 17  1  0  0  0  0
  8 54  1  0  0  0  0
  9 19  1  0  0  0  0
  9 20  1  0  0  0  0
  9 59  1  0  0  0  0
 22 10  1  6  0  0  0
 10 32  1  0  0  0  0
 10 63  1  0  0  0  0
 11 37  2  0  0  0  0
 12 13  1  6  0  0  0
 12 16  1  0  0  0  0
 12 20  1  0  0  0  0
 12 43  1  0  0  0  0
 13 15  1  0  0  0  0
 13 44  1  0  0  0  0
 13 45  1  0  0  0  0
 14 17  1  6  0  0  0
 14 18  1  0  0  0  0
 14 21  1  0  0  0  0
 14 46  1  0  0  0  0
 15 24  1  0  0  0  0
 15 47  1  0  0  0  0
 16 19  1  0  0  0  0
 16 48  1  0  0  0  0
 16 49  1  0  0  0  0
 17 50  1  0  0  0  0
 17 51  1  0  0  0  0
 18 23  1  0  0  0  0
 18 52  1  0  0  0  0
 18 53  1  0  0  0  0
 19 55  1  0  0  0  0
 19 56  1  0  0  0  0
 21 26  1  0  0  0  0
 21 57  1  0  0  0  0
 21 58  1  0  0  0  0
 22 23  1  0  0  0  0
 22 25  1  0  0  0  0
 22 60  1  0  0  0  0
 24 29  2  0  0  0  0
 24 61  1  0  0  0  0
 25 27  1  0  0  0  0
 25 28  1  0  0  0  0
 25 62  1  0  0  0  0
 26 30  2  0  0  0  0
 26 31  1  0  0  0  0
 27 64  1  0  0  0  0
 27 65  1  0  0  0  0
 27 66  1  0  0  0  0
 28 67  1  0  0  0  0
 28 68  1  0  0  0  0
 28 69  1  0  0  0  0
 29 35  1  0  0  0  0
 29 70  1  0  0  0  0
 30 33  1  0  0  0  0
 30 71  1  0  0  0  0
 31 34  2  0  0  0  0
 31 72  1  0  0  0  0
 32 37  1  0  0  0  0
 33 36  2  0  0  0  0
 33 73  1  0  0  0  0
 34 36  1  0  0  0  0
 34 74  1  0  0  0  0
 37 38  1  0  0  0  0
 38 39  2  0  0  0  0
 38 75  1  0  0  0  0
 39 41  1  0  0  0  0
 40 42  1  0  0  0  0
 40 76  1  0  0  0  0
 40 77  1  0  0  0  0
 41 78  1  0  0  0  0
 41 79  1  0  0  0  0
 41 80  1  0  0  0  0
 42 81  1  0  0  0  0
 42 82  1  0  0  0  0
 42 83  1  0  0  0  0
M  END
> <PUBCHEM_COMPOUND_CID>
102021036

> <PUBCHEM_COMPOUND_CANONICALIZED>
1

> <PUBCHEM_CACTVS_COMPLEXITY>
938

> <PUBCHEM_CACTVS_HBOND_ACCEPTOR>
9

> <PUBCHEM_CACTVS_HBOND_DONOR>
3

> <PUBCHEM_CACTVS_ROTATABLE_BOND>
17

> <PUBCHEM_CACTVS_SUBSKEYS>
AAADcfB7uQAAAAAAAAAAAAAAAAAAAWLAAAAwAAAAAAAAAAABwAAAHwAUAAAADSzhng4yjJLQBACpA6XyWgCCAAAmIgAomKG+bNoIZjqAtbOWMYhmlhiI6cc/iMCOAAAAAAAAAAAAAAAAAAAAAAAAAAAAAA==

> <PUBCHEM_IUPAC_OPENEYE_NAME>
ethyl (E,4S)-4-[[(2R,5S)-2-[(4-fluorophenyl)methyl]-6-methyl-5-[(5-methylisoxazole-3-carbonyl)amino]-4-oxo-heptyl]amino]-5-[(3S)-2-oxopyrrolidin-3-yl]pent-2-enoate

> <PUBCHEM_IUPAC_CAS_NAME>
(E,4S)-4-[[(2R,5S)-2-[(4-fluorophenyl)methyl]-6-methyl-5-[[(5-methyl-3-isoxazolyl)-oxomethyl]amino]-4-oxoheptyl]amino]-5-[(3S)-2-oxo-3-pyrrolidinyl]-2-pentenoic acid ethyl ester

> <PUBCHEM_IUPAC_NAME_MARKUP>
ethyl (<I>E</I>,4<I>S</I>)-4-[[(2<I>R</I>,5<I>S</I>)-2-[(4-fluorophenyl)methyl]-6-methyl-5-[(5-methyl-1,2-oxazole-3-carbonyl)amino]-4-oxoheptyl]amino]-5-[(3<I>S</I>)-2-oxopyrrolidin-3-yl]pent-2-enoate

> <PUBCHEM_IUPAC_NAME>
ethyl (E,4S)-4-[[(2R,5S)-2-[(4-fluorophenyl)methyl]-6-methyl-5-[(5-methyl-1,2-oxazole-3-carbonyl)amino]-4-oxoheptyl]amino]-5-[(3S)-2-oxopyrrolidin-3-yl]pent-2-enoate

> <PUBCHEM_IUPAC_SYSTEMATIC_NAME>
ethyl (E,4S)-4-[[(2R,5S)-2-[(4-fluorophenyl)methyl]-6-methyl-5-[(5-methyl-1,2-oxazol-3-yl)carbonylamino]-4-oxidanylidene-heptyl]amino]-5-[(3S)-2-oxidanylidenepyrrolidin-3-yl]pent-2-enoate

> <PUBCHEM_IUPAC_TRADITIONAL_NAME>
(E,4S)-4-[[(2R,5S)-2-(4-fluorobenzyl)-4-keto-6-methyl-5-[(5-methylisoxazole-3-carbonyl)amino]heptyl]amino]-5-[(3S)-2-ketopyrrolidin-3-yl]pent-2-enoic acid ethyl ester

> <PUBCHEM_IUPAC_INCHI>
InChI=1S/C31H41FN4O6/c1-5-41-28(38)11-10-25(17-23-12-13-33-30(23)39)34-18-22(15-21-6-8-24(32)9-7-21)16-27(37)29(19(2)3)35-31(40)26-14-20(4)42-36-26/h6-11,14,19,22-23,25,29,34H,5,12-13,15-18H2,1-4H3,(H,33,39)(H,35,40)/b11-10+/t22-,23+,25-,29+/m1/s1

> <PUBCHEM_IUPAC_INCHIKEY>
YERPOLBGEOAQLG-CADGUDEYSA-N

> <PUBCHEM_XLOGP3_AA>
3.6

> <PUBCHEM_EXACT_MASS>
584.301013

> <PUBCHEM_MOLECULAR_FORMULA>
C31H41FN4O6

> <PUBCHEM_MOLECULAR_WEIGHT>
584.7

> <PUBCHEM_OPENEYE_CAN_SMILES>
CCOC(=O)C=CC(CC1CCNC1=O)NCC(CC2=CC=C(C=C2)F)CC(=O)C(C(C)C)NC(=O)C3=NOC(=C3)C

> <PUBCHEM_OPENEYE_ISO_SMILES>
CCOC(=O)/C=C/[C@H](C[C@@H]1CCNC1=O)NC[C@H](CC2=CC=C(C=C2)F)CC(=O)[C@H](C(C)C)NC(=O)C3=NOC(=C3)C

> <PUBCHEM_CACTVS_TPSA>
140

> <PUBCHEM_MONOISOTOPIC_WEIGHT>
584.301013

> <PUBCHEM_TOTAL_CHARGE>
0

> <PUBCHEM_HEAVY_ATOM_COUNT>
42

> <PUBCHEM_ATOM_DEF_STEREO_COUNT>
4

> <PUBCHEM_ATOM_UDEF_STEREO_COUNT>
0

> <PUBCHEM_BOND_DEF_STEREO_COUNT>
1

> <PUBCHEM_BOND_UDEF_STEREO_COUNT>
0

> <PUBCHEM_ISOTOPIC_ATOM_COUNT>
0

> <PUBCHEM_COMPONENT_COUNT>
1

> <PUBCHEM_CACTVS_TAUTO_COUNT>
-1

> <PUBCHEM_COORDINATE_TYPE>
1
5
255

> <PUBCHEM_BONDANNOTATIONS>
22  10  6
11  37  8
12  13  6
14  17  6
26  30  8
26  31  8
30  33  8
31  34  8
33  36  8
34  36  8
37  38  8
38  39  8
7  11  8
7  39  8
15  8  6

$$$$
102513023
  -OEChem-02212016592D

 97 99  0     1  0  0  0  0  0999 V2000
   15.0964   -0.6929    0.0000 O   0  0  0  0  0  0  0  0  0  0  0  0
   10.5109    1.6920    0.0000 O   0  0  0  0  0  0  0  0  0  0  0  0
    9.6448    2.1920    0.0000 O   0  0  0  0  0  0  0  0  0  0  0  0
   10.5109   -2.3080    0.0000 O   0  0  0  0  0  0  0  0  0  0  0  0
    7.0468    4.6920    0.0000 O   0  0  0  0  0  0  0  0  0  0  0  0
    9.6448   -0.8080    0.0000 O   0  0  0  0  0  0  0  0  0  0  0  0
    4.4487    2.1920    0.0000 O   0  0  0  0  0  0  0  0  0  0  0  0
    2.0000    4.0284    0.0000 O   0  0  0  0  0  0  0  0  0  0  0  0
   15.5577    1.0284    0.0000 N   0  0  0  0  0  0  0  0  0  0  0  0
   12.2429    1.6920    0.0000 N   0  0  0  0  0  0  0  0  0  0  0  0
   10.5109    3.6920    0.0000 N   0  0  0  0  0  0  0  0  0  0  0  0
    7.9128    3.1920    0.0000 N   0  0  0  0  0  0  0  0  0  0  0  0
    5.3147    3.6920    0.0000 N   0  0  0  0  0  0  0  0  0  0  0  0
    2.6691    3.2853    0.0000 N   0  0  0  0  0  0  0  0  0  0  0  0
   13.9750    0.6920    0.0000 C   0  0  1  0  0  0  0  0  0  0  0  0
   13.1090    0.1920    0.0000 C   0  0  0  0  0  0  0  0  0  0  0  0
   14.0795    1.6865    0.0000 C   0  0  0  0  0  0  0  0  0  0  0  0
   12.2429    0.6920    0.0000 C   0  0  1  0  0  0  0  0  0  0  0  0
   15.0577    1.8944    0.0000 C   0  0  0  0  0  0  0  0  0  0  0  0
   14.8885    0.2853    0.0000 C   0  0  0  0  0  0  0  0  0  0  0  0
   11.3769    3.1920    0.0000 C   0  0  1  0  0  0  0  0  0  0  0  0
   12.2429    3.6920    0.0000 C   0  0  0  0  0  0  0  0  0  0  0  0
   11.3769    2.1920    0.0000 C   0  0  0  0  0  0  0  0  0  0  0  0
   12.2429    4.6920    0.0000 C   0  0  0  0  0  0  0  0  0  0  0  0
   11.3769    0.1920    0.0000 C   0  0  0  0  0  0  0  0  0  0  0  0
    8.7788    3.6920    0.0000 C   0  0  1  0  0  0  0  0  0  0  0  0
    8.7788    4.6920    0.0000 C   0  0  0  0  0  0  0  0  0  0  0  0
    9.6448    3.1920    0.0000 C   0  0  0  0  0  0  0  0  0  0  0  0
   13.1090    5.1920    0.0000 C   0  0  0  0  0  0  0  0  0  0  0  0
   11.3769    5.1920    0.0000 C   0  0  0  0  0  0  0  0  0  0  0  0
   11.3769   -0.8080    0.0000 C   0  0  0  0  0  0  0  0  0  0  0  0
    7.9128    5.1920    0.0000 C   0  0  0  0  0  0  0  0  0  0  0  0
    9.6448    5.1920    0.0000 C   0  0  0  0  0  0  0  0  0  0  0  0
    7.0468    3.6920    0.0000 C   0  0  0  0  0  0  0  0  0  0  0  0
    6.1808    3.1920    0.0000 C   0  0  2  0  0  0  0  0  0  0  0  0
   10.5109   -1.3080    0.0000 C   0  0  0  0  0  0  0  0  0  0  0  0
    6.1808    2.1920    0.0000 C   0  0  0  0  0  0  0  0  0  0  0  0
    4.4487    3.1920    0.0000 C   0  0  0  0  0  0  0  0  0  0  0  0
    9.6448   -2.8080    0.0000 C   0  0  0  0  0  0  0  0  0  0  0  0
    3.5827    3.6920    0.0000 C   0  0  0  0  0  0  0  0  0  0  0  0
    9.6448   -3.8080    0.0000 C   0  0  0  0  0  0  0  0  0  0  0  0
    3.4782    4.6865    0.0000 C   0  0  0  0  0  0  0  0  0  0  0  0
    8.7788   -4.3080    0.0000 C   0  0  0  0  0  0  0  0  0  0  0  0
   10.5109   -4.3080    0.0000 C   0  0  0  0  0  0  0  0  0  0  0  0
    2.5000    4.8944    0.0000 C   0  0  0  0  0  0  0  0  0  0  0  0
    8.7788   -5.3080    0.0000 C   0  0  0  0  0  0  0  0  0  0  0  0
   10.5109   -5.3080    0.0000 C   0  0  0  0  0  0  0  0  0  0  0  0
    9.6448   -5.8080    0.0000 C   0  0  0  0  0  0  0  0  0  0  0  0
    2.0933    5.8080    0.0000 C   0  0  0  0  0  0  0  0  0  0  0  0
   14.0074    0.0729    0.0000 H   0  0  0  0  0  0  0  0  0  0  0  0
   12.7104   -0.2829    0.0000 H   0  0  0  0  0  0  0  0  0  0  0  0
   13.5075   -0.2829    0.0000 H   0  0  0  0  0  0  0  0  0  0  0  0
   14.0147    2.3031    0.0000 H   0  0  0  0  0  0  0  0  0  0  0  0
   13.4595    1.6865    0.0000 H   0  0  0  0  0  0  0  0  0  0  0  0
   12.7799    1.0020    0.0000 H   0  0  0  0  0  0  0  0  0  0  0  0
   15.6241    2.1466    0.0000 H   0  0  0  0  0  0  0  0  0  0  0  0
   14.8661    2.4841    0.0000 H   0  0  0  0  0  0  0  0  0  0  0  0
   16.1743    0.9636    0.0000 H   0  0  0  0  0  0  0  0  0  0  0  0
   10.8400    2.8820    0.0000 H   0  0  0  0  0  0  0  0  0  0  0  0
   12.4550    3.1094    0.0000 H   0  0  0  0  0  0  0  0  0  0  0  0
   12.8535    3.7997    0.0000 H   0  0  0  0  0  0  0  0  0  0  0  0
   12.7799    2.0020    0.0000 H   0  0  0  0  0  0  0  0  0  0  0  0
   12.7799    4.3820    0.0000 H   0  0  0  0  0  0  0  0  0  0  0  0
   10.8400    0.5020    0.0000 H   0  0  0  0  0  0  0  0  0  0  0  0
    8.2419    4.0020    0.0000 H   0  0  0  0  0  0  0  0  0  0  0  0
   10.5109    4.3120    0.0000 H   0  0  0  0  0  0  0  0  0  0  0  0
    9.3158    4.3820    0.0000 H   0  0  0  0  0  0  0  0  0  0  0  0
   13.4190    4.6551    0.0000 H   0  0  0  0  0  0  0  0  0  0  0  0
   13.6459    5.5020    0.0000 H   0  0  0  0  0  0  0  0  0  0  0  0
   12.7990    5.7290    0.0000 H   0  0  0  0  0  0  0  0  0  0  0  0
   11.6869    5.7290    0.0000 H   0  0  0  0  0  0  0  0  0  0  0  0
   10.8400    5.5020    0.0000 H   0  0  0  0  0  0  0  0  0  0  0  0
   11.0669    4.6551    0.0000 H   0  0  0  0  0  0  0  0  0  0  0  0
    7.9128    2.5720    0.0000 H   0  0  0  0  0  0  0  0  0  0  0  0
   11.9138   -1.1180    0.0000 H   0  0  0  0  0  0  0  0  0  0  0  0
    8.2228    5.7290    0.0000 H   0  0  0  0  0  0  0  0  0  0  0  0
    7.3759    5.5020    0.0000 H   0  0  0  0  0  0  0  0  0  0  0  0
    7.6028    4.6551    0.0000 H   0  0  0  0  0  0  0  0  0  0  0  0
    9.9548    4.6551    0.0000 H   0  0  0  0  0  0  0  0  0  0  0  0
   10.1818    5.5020    0.0000 H   0  0  0  0  0  0  0  0  0  0  0  0
    9.3348    5.7290    0.0000 H   0  0  0  0  0  0  0  0  0  0  0  0
    6.1808    3.8120    0.0000 H   0  0  0  0  0  0  0  0  0  0  0  0
    5.5608    2.1920    0.0000 H   0  0  0  0  0  0  0  0  0  0  0  0
    6.1808    1.5720    0.0000 H   0  0  0  0  0  0  0  0  0  0  0  0
    6.8008    2.1920    0.0000 H   0  0  0  0  0  0  0  0  0  0  0  0
    5.3147    4.3120    0.0000 H   0  0  0  0  0  0  0  0  0  0  0  0
    9.4328   -2.2254    0.0000 H   0  0  0  0  0  0  0  0  0  0  0  0
    9.0343   -2.9156    0.0000 H   0  0  0  0  0  0  0  0  0  0  0  0
    3.9389    5.1014    0.0000 H   0  0  0  0  0  0  0  0  0  0  0  0
    8.2419   -3.9980    0.0000 H   0  0  0  0  0  0  0  0  0  0  0  0
   11.0478   -3.9980    0.0000 H   0  0  0  0  0  0  0  0  0  0  0  0
    8.2419   -5.6180    0.0000 H   0  0  0  0  0  0  0  0  0  0  0  0
   11.0478   -5.6180    0.0000 H   0  0  0  0  0  0  0  0  0  0  0  0
    9.6448   -6.4280    0.0000 H   0  0  0  0  0  0  0  0  0  0  0  0
    2.6597    6.0602    0.0000 H   0  0  0  0  0  0  0  0  0  0  0  0
    1.8411    6.3744    0.0000 H   0  0  0  0  0  0  0  0  0  0  0  0
    1.5269    5.5558    0.0000 H   0  0  0  0  0  0  0  0  0  0  0  0
  1 20  2  0  0  0  0
  2 23  2  0  0  0  0
  3 28  2  0  0  0  0
  4 36  1  0  0  0  0
  4 39  1  0  0  0  0
  5 34  2  0  0  0  0
  6 36  2  0  0  0  0
  7 38  2  0  0  0  0
  8 14  1  0  0  0  0
  8 45  1  0  0  0  0
  9 19  1  0  0  0  0
  9 20  1  0  0  0  0
  9 58  1  0  0  0  0
 18 10  1  1  0  0  0
 10 23  1  0  0  0  0
 10 62  1  0  0  0  0
 21 11  1  1  0  0  0
 11 28  1  0  0  0  0
 11 66  1  0  0  0  0
 26 12  1  1  0  0  0
 12 34  1  0  0  0  0
 12 74  1  0  0  0  0
 35 13  1  6  0  0  0
 13 38  1  0  0  0  0
 13 86  1  0  0  0  0
 14 40  2  0  0  0  0
 15 16  1  1  0  0  0
 15 17  1  0  0  0  0
 15 20  1  0  0  0  0
 15 50  1  0  0  0  0
 16 18  1  0  0  0  0
 16 51  1  0  0  0  0
 16 52  1  0  0  0  0
 17 19  1  0  0  0  0
 17 53  1  0  0  0  0
 17 54  1  0  0  0  0
 18 25  1  0  0  0  0
 18 55  1  0  0  0  0
 19 56  1  0  0  0  0
 19 57  1  0  0  0  0
 21 22  1  0  0  0  0
 21 23  1  0  0  0  0
 21 59  1  0  0  0  0
 22 24  1  0  0  0  0
 22 60  1  0  0  0  0
 22 61  1  0  0  0  0
 24 29  1  0  0  0  0
 24 30  1  0  0  0  0
 24 63  1  0  0  0  0
 25 31  2  0  0  0  0
 25 64  1  0  0  0  0
 26 27  1  0  0  0  0
 26 28  1  0  0  0  0
 26 65  1  0  0  0  0
 27 32  1  0  0  0  0
 27 33  1  0  0  0  0
 27 67  1  0  0  0  0
 29 68  1  0  0  0  0
 29 69  1  0  0  0  0
 29 70  1  0  0  0  0
 30 71  1  0  0  0  0
 30 72  1  0  0  0  0
 30 73  1  0  0  0  0
 31 36  1  0  0  0  0
 31 75  1  0  0  0  0
 32 76  1  0  0  0  0
 32 77  1  0  0  0  0
 32 78  1  0  0  0  0
 33 79  1  0  0  0  0
 33 80  1  0  0  0  0
 33 81  1  0  0  0  0
 34 35  1  0  0  0  0
 35 37  1  0  0  0  0
 35 82  1  0  0  0  0
 37 83  1  0  0  0  0
 37 84  1  0  0  0  0
 37 85  1  0  0  0  0
 38 40  1  0  0  0  0
 39 41  1  0  0  0  0
 39 87  1  0  0  0  0
 39 88  1  0  0  0  0
 40 42  1  0  0  0  0
 41 43  2  0  0  0  0
 41 44  1  0  0  0  0
 42 45  2  0  0  0  0
 42 89  1  0  0  0  0
 43 46  1  0  0  0  0
 43 90  1  0  0  0  0
 44 47  2  0  0  0  0
 44 91  1  0  0  0  0
 45 49  1  0  0  0  0
 46 48  2  0  0  0  0
 46 92  1  0  0  0  0
 47 48  1  0  0  0  0
 47 93  1  0  0  0  0
 48 94  1  0  0  0  0
 49 95  1  0  0  0  0
 49 96  1  0  0  0  0
 49 97  1  0  0  0  0
M  END
> <PUBCHEM_COMPOUND_CID>
102513023

> <PUBCHEM_COMPOUND_CANONICALIZED>
1

> <PUBCHEM_CACTVS_COMPLEXITY>
1190

> <PUBCHEM_CACTVS_HBOND_ACCEPTOR>
9

> <PUBCHEM_CACTVS_HBOND_DONOR>
5

> <PUBCHEM_CACTVS_ROTATABLE_BOND>
18

> <PUBCHEM_CACTVS_SUBSKEYS>
AAADcfB/vAAAAAAAAAAAAAAAAAAAAWLAAAAwAAAAAAAAAAABwAAAHgAUAAAADSzhngYyjJLQBACpA6XyWgCCAAAmIgAomKG+bNoIZjqAtbuWMYhm1hmI6ce/wCAOAAAAAAAAAAAAAAAAAAAAAAAAAAAAAA==

> <PUBCHEM_IUPAC_OPENEYE_NAME>
benzyl (E,4S)-4-[[(2S)-4-methyl-2-[[(2S)-3-methyl-2-[[(2S)-2-[(5-methylisoxazole-3-carbonyl)amino]propanoyl]amino]butanoyl]amino]pentanoyl]amino]-5-[(3R)-2-oxopyrrolidin-3-yl]pent-2-enoate

> <PUBCHEM_IUPAC_CAS_NAME>
(E,4S)-4-[[(2S)-4-methyl-2-[[(2S)-3-methyl-2-[[(2S)-2-[[(5-methyl-3-isoxazolyl)-oxomethyl]amino]-1-oxopropyl]amino]-1-oxobutyl]amino]-1-oxopentyl]amino]-5-[(3R)-2-oxo-3-pyrrolidinyl]-2-pentenoic acid (phenylmethyl) ester

> <PUBCHEM_IUPAC_NAME_MARKUP>
benzyl (<I>E</I>,4<I>S</I>)-4-[[(2<I>S</I>)-4-methyl-2-[[(2<I>S</I>)-3-methyl-2-[[(2<I>S</I>)-2-[(5-methyl-1,2-oxazole-3-carbonyl)amino]propanoyl]amino]butanoyl]amino]pentanoyl]amino]-5-[(3<I>R</I>)-2-oxopyrrolidin-3-yl]pent-2-enoate

> <PUBCHEM_IUPAC_NAME>
benzyl (E,4S)-4-[[(2S)-4-methyl-2-[[(2S)-3-methyl-2-[[(2S)-2-[(5-methyl-1,2-oxazole-3-carbonyl)amino]propanoyl]amino]butanoyl]amino]pentanoyl]amino]-5-[(3R)-2-oxopyrrolidin-3-yl]pent-2-enoate

> <PUBCHEM_IUPAC_SYSTEMATIC_NAME>
(phenylmethyl) (E,4S)-4-[[(2S)-4-methyl-2-[[(2S)-3-methyl-2-[[(2S)-2-[(5-methyl-1,2-oxazol-3-yl)carbonylamino]propanoyl]amino]butanoyl]amino]pentanoyl]amino]-5-[(3R)-2-oxidanylidenepyrrolidin-3-yl]pent-2-enoate

> <PUBCHEM_IUPAC_TRADITIONAL_NAME>
(E,4S)-5-[(3R)-2-ketopyrrolidin-3-yl]-4-[[(2S)-4-methyl-2-[[(2S)-3-methyl-2-[[(2S)-2-[(5-methylisoxazole-3-carbonyl)amino]propanoyl]amino]butanoyl]amino]pentanoyl]amino]pent-2-enoic acid benzyl ester

> <PUBCHEM_IUPAC_INCHI>
InChI=1S/C35H48N6O8/c1-20(2)16-27(39-35(47)30(21(3)4)40-31(43)23(6)37-34(46)28-17-22(5)49-41-28)33(45)38-26(18-25-14-15-36-32(25)44)12-13-29(42)48-19-24-10-8-7-9-11-24/h7-13,17,20-21,23,25-27,30H,14-16,18-19H2,1-6H3,(H,36,44)(H,37,46)(H,38,45)(H,39,47)(H,40,43)/b13-12+/t23-,25+,26+,27-,30-/m0/s1

> <PUBCHEM_IUPAC_INCHIKEY>
IDBWWEGDLCFCTD-QTJRCWRXSA-N

> <PUBCHEM_XLOGP3_AA>
3.4

> <PUBCHEM_EXACT_MASS>
680.353363

> <PUBCHEM_MOLECULAR_FORMULA>
C35H48N6O8

> <PUBCHEM_MOLECULAR_WEIGHT>
680.8

> <PUBCHEM_OPENEYE_CAN_SMILES>
CC1=CC(=NO1)C(=O)NC(C)C(=O)NC(C(C)C)C(=O)NC(CC(C)C)C(=O)NC(CC2CCNC2=O)C=CC(=O)OCC3=CC=CC=C3

> <PUBCHEM_OPENEYE_ISO_SMILES>
CC1=CC(=NO1)C(=O)N[C@@H](C)C(=O)N[C@@H](C(C)C)C(=O)N[C@@H](CC(C)C)C(=O)N[C@@H](C[C@H]2CCNC2=O)/C=C/C(=O)OCC3=CC=CC=C3

> <PUBCHEM_CACTVS_TPSA>
198

> <PUBCHEM_MONOISOTOPIC_WEIGHT>
680.353363

> <PUBCHEM_TOTAL_CHARGE>
0

> <PUBCHEM_HEAVY_ATOM_COUNT>
49

> <PUBCHEM_ATOM_DEF_STEREO_COUNT>
5

> <PUBCHEM_ATOM_UDEF_STEREO_COUNT>
0

> <PUBCHEM_BOND_DEF_STEREO_COUNT>
1

> <PUBCHEM_BOND_UDEF_STEREO_COUNT>
0

> <PUBCHEM_ISOTOPIC_ATOM_COUNT>
0

> <PUBCHEM_COMPONENT_COUNT>
1

> <PUBCHEM_CACTVS_TAUTO_COUNT>
-1

> <PUBCHEM_COORDINATE_TYPE>
1
5
255

> <PUBCHEM_BONDANNOTATIONS>
18  10  5
21  11  5
26  12  5
35  13  6
14  40  8
15  16  5
40  42  8
41  43  8
41  44  8
42  45  8
43  46  8
44  47  8
46  48  8
47  48  8
8  14  8
8  45  8

$$$$
102515539
  -OEChem-02212016592D

102104  0     1  0  0  0  0  0999 V2000
   10.5109    0.6920    0.0000 S   0  0  0  0  0  0  0  0  0  0  0  0
   13.3364    2.3557    0.0000 O   0  0  0  0  0  0  0  0  0  0  0  0
   10.5109    1.6920    0.0000 O   0  0  0  0  0  0  0  0  0  0  0  0
   10.5109   -2.3080    0.0000 O   0  0  0  0  0  0  0  0  0  0  0  0
    9.6448   -0.8080    0.0000 O   0  0  0  0  0  0  0  0  0  0  0  0
    9.6448    2.1920    0.0000 O   0  0  0  0  0  0  0  0  0  0  0  0
    7.0468    4.6920    0.0000 O   0  0  0  0  0  0  0  0  0  0  0  0
    4.4487    2.1920    0.0000 O   0  0  0  0  0  0  0  0  0  0  0  0
    2.0000    4.0284    0.0000 O   0  0  0  0  0  0  0  0  0  0  0  0
   15.0577    1.8944    0.0000 N   0  0  0  0  0  0  0  0  0  0  0  0
   12.2429    1.6920    0.0000 N   0  0  0  0  0  0  0  0  0  0  0  0
   10.5109    3.6920    0.0000 N   0  0  0  0  0  0  0  0  0  0  0  0
    7.9128    3.1920    0.0000 N   0  0  0  0  0  0  0  0  0  0  0  0
    5.3147    3.6920    0.0000 N   0  0  0  0  0  0  0  0  0  0  0  0
    2.6691    3.2853    0.0000 N   0  0  0  0  0  0  0  0  0  0  0  0
   13.9750    0.6920    0.0000 C   0  0  2  0  0  0  0  0  0  0  0  0
   13.1090    0.1920    0.0000 C   0  0  0  0  0  0  0  0  0  0  0  0
   14.8885    0.2853    0.0000 C   0  0  0  0  0  0  0  0  0  0  0  0
   14.0795    1.6865    0.0000 C   0  0  1  0  0  0  0  0  0  0  0  0
   12.2429    0.6920    0.0000 C   0  0  1  0  0  0  0  0  0  0  0  0
   15.5577    1.0284    0.0000 C   0  0  0  0  0  0  0  0  0  0  0  0
   11.3769    0.1920    0.0000 C   0  0  1  0  0  0  0  0  0  0  0  0
   11.3769   -0.8080    0.0000 C   0  0  0  0  0  0  0  0  0  0  0  0
   11.3769    2.1920    0.0000 C   0  0  0  0  0  0  0  0  0  0  0  0
   11.3769    3.1920    0.0000 C   0  0  2  0  0  0  0  0  0  0  0  0
   12.2429    3.6920    0.0000 C   0  0  0  0  0  0  0  0  0  0  0  0
   12.2429    4.6920    0.0000 C   0  0  0  0  0  0  0  0  0  0  0  0
   10.5109   -1.3080    0.0000 C   0  0  0  0  0  0  0  0  0  0  0  0
    8.7788    3.6920    0.0000 C   0  0  2  0  0  0  0  0  0  0  0  0
    9.6448    3.1920    0.0000 C   0  0  0  0  0  0  0  0  0  0  0  0
   13.1090    5.1920    0.0000 C   0  0  0  0  0  0  0  0  0  0  0  0
   11.3769    5.1920    0.0000 C   0  0  0  0  0  0  0  0  0  0  0  0
    8.7788    4.6920    0.0000 C   0  0  0  0  0  0  0  0  0  0  0  0
    7.9128    5.1920    0.0000 C   0  0  0  0  0  0  0  0  0  0  0  0
    9.6448    5.1920    0.0000 C   0  0  0  0  0  0  0  0  0  0  0  0
    9.6448   -2.8080    0.0000 C   0  0  0  0  0  0  0  0  0  0  0  0
    7.0468    3.6920    0.0000 C   0  0  0  0  0  0  0  0  0  0  0  0
    6.1808    3.1920    0.0000 C   0  0  2  0  0  0  0  0  0  0  0  0
    9.6448   -3.8080    0.0000 C   0  0  0  0  0  0  0  0  0  0  0  0
    6.1808    2.1920    0.0000 C   0  0  0  0  0  0  0  0  0  0  0  0
    8.7788   -4.3080    0.0000 C   0  0  0  0  0  0  0  0  0  0  0  0
   10.5109   -4.3080    0.0000 C   0  0  0  0  0  0  0  0  0  0  0  0
    4.4487    3.1920    0.0000 C   0  0  0  0  0  0  0  0  0  0  0  0
    8.7788   -5.3080    0.0000 C   0  0  0  0  0  0  0  0  0  0  0  0
   10.5109   -5.3080    0.0000 C   0  0  0  0  0  0  0  0  0  0  0  0
    9.6448   -5.8080    0.0000 C   0  0  0  0  0  0  0  0  0  0  0  0
    3.5827    3.6920    0.0000 C   0  0  0  0  0  0  0  0  0  0  0  0
    3.4782    4.6865    0.0000 C   0  0  0  0  0  0  0  0  0  0  0  0
    2.5000    4.8944    0.0000 C   0  0  0  0  0  0  0  0  0  0  0  0
    2.0933    5.8080    0.0000 C   0  0  0  0  0  0  0  0  0  0  0  0
   14.0074    0.0729    0.0000 H   0  0  0  0  0  0  0  0  0  0  0  0
   12.7104   -0.2829    0.0000 H   0  0  0  0  0  0  0  0  0  0  0  0
   13.5075   -0.2829    0.0000 H   0  0  0  0  0  0  0  0  0  0  0  0
   14.5785   -0.2517    0.0000 H   0  0  0  0  0  0  0  0  0  0  0  0
   15.3901   -0.0792    0.0000 H   0  0  0  0  0  0  0  0  0  0  0  0
   14.2400    2.2854    0.0000 H   0  0  0  0  0  0  0  0  0  0  0  0
   12.7799    1.0020    0.0000 H   0  0  0  0  0  0  0  0  0  0  0  0
   15.9725    0.5677    0.0000 H   0  0  0  0  0  0  0  0  0  0  0  0
   16.0592    1.3928    0.0000 H   0  0  0  0  0  0  0  0  0  0  0  0
   15.3098    2.4608    0.0000 H   0  0  0  0  0  0  0  0  0  0  0  0
   10.8400   -0.1180    0.0000 H   0  0  0  0  0  0  0  0  0  0  0  0
   12.7799    2.0020    0.0000 H   0  0  0  0  0  0  0  0  0  0  0  0
   11.5890   -1.3906    0.0000 H   0  0  0  0  0  0  0  0  0  0  0  0
   11.9875   -0.7003    0.0000 H   0  0  0  0  0  0  0  0  0  0  0  0
   13.4653    2.9621    0.0000 H   0  0  0  0  0  0  0  0  0  0  0  0
   10.8400    2.8820    0.0000 H   0  0  0  0  0  0  0  0  0  0  0  0
   12.4550    3.1094    0.0000 H   0  0  0  0  0  0  0  0  0  0  0  0
   12.8535    3.7997    0.0000 H   0  0  0  0  0  0  0  0  0  0  0  0
    9.9739    0.3820    0.0000 H   0  0  0  0  0  0  0  0  0  0  0  0
   12.7799    4.3820    0.0000 H   0  0  0  0  0  0  0  0  0  0  0  0
   10.5109    4.3120    0.0000 H   0  0  0  0  0  0  0  0  0  0  0  0
    8.2419    4.0020    0.0000 H   0  0  0  0  0  0  0  0  0  0  0  0
   13.4190    4.6551    0.0000 H   0  0  0  0  0  0  0  0  0  0  0  0
   13.6459    5.5020    0.0000 H   0  0  0  0  0  0  0  0  0  0  0  0
   12.7990    5.7290    0.0000 H   0  0  0  0  0  0  0  0  0  0  0  0
   11.6869    5.7290    0.0000 H   0  0  0  0  0  0  0  0  0  0  0  0
   10.8400    5.5020    0.0000 H   0  0  0  0  0  0  0  0  0  0  0  0
   11.0669    4.6551    0.0000 H   0  0  0  0  0  0  0  0  0  0  0  0
    9.3158    4.3820    0.0000 H   0  0  0  0  0  0  0  0  0  0  0  0
    7.9128    2.5720    0.0000 H   0  0  0  0  0  0  0  0  0  0  0  0
    8.2228    5.7290    0.0000 H   0  0  0  0  0  0  0  0  0  0  0  0
    7.3759    5.5020    0.0000 H   0  0  0  0  0  0  0  0  0  0  0  0
    7.6028    4.6551    0.0000 H   0  0  0  0  0  0  0  0  0  0  0  0
    9.9548    4.6551    0.0000 H   0  0  0  0  0  0  0  0  0  0  0  0
   10.1818    5.5020    0.0000 H   0  0  0  0  0  0  0  0  0  0  0  0
    9.3348    5.7290    0.0000 H   0  0  0  0  0  0  0  0  0  0  0  0
    9.4328   -2.2254    0.0000 H   0  0  0  0  0  0  0  0  0  0  0  0
    9.0343   -2.9156    0.0000 H   0  0  0  0  0  0  0  0  0  0  0  0
    6.1808    3.8120    0.0000 H   0  0  0  0  0  0  0  0  0  0  0  0
    5.5608    2.1920    0.0000 H   0  0  0  0  0  0  0  0  0  0  0  0
    6.1808    1.5720    0.0000 H   0  0  0  0  0  0  0  0  0  0  0  0
    6.8008    2.1920    0.0000 H   0  0  0  0  0  0  0  0  0  0  0  0
    5.3147    4.3120    0.0000 H   0  0  0  0  0  0  0  0  0  0  0  0
    8.2419   -3.9980    0.0000 H   0  0  0  0  0  0  0  0  0  0  0  0
   11.0478   -3.9980    0.0000 H   0  0  0  0  0  0  0  0  0  0  0  0
    8.2419   -5.6180    0.0000 H   0  0  0  0  0  0  0  0  0  0  0  0
   11.0478   -5.6180    0.0000 H   0  0  0  0  0  0  0  0  0  0  0  0
    9.6448   -6.4280    0.0000 H   0  0  0  0  0  0  0  0  0  0  0  0
    3.9389    5.1014    0.0000 H   0  0  0  0  0  0  0  0  0  0  0  0
    2.6597    6.0602    0.0000 H   0  0  0  0  0  0  0  0  0  0  0  0
    1.8411    6.3744    0.0000 H   0  0  0  0  0  0  0  0  0  0  0  0
    1.5269    5.5558    0.0000 H   0  0  0  0  0  0  0  0  0  0  0  0
 22  1  1  1  0  0  0
  1 69  1  0  0  0  0
 19  2  1  1  0  0  0
  2 65  1  0  0  0  0
  3 24  2  0  0  0  0
  4 28  1  0  0  0  0
  4 36  1  0  0  0  0
  5 28  2  0  0  0  0
  6 30  2  0  0  0  0
  7 37  2  0  0  0  0
  8 43  2  0  0  0  0
  9 15  1  0  0  0  0
  9 49  1  0  0  0  0
 10 19  1  0  0  0  0
 10 21  1  0  0  0  0
 10 60  1  0  0  0  0
 20 11  1  1  0  0  0
 11 24  1  0  0  0  0
 11 62  1  0  0  0  0
 25 12  1  1  0  0  0
 12 30  1  0  0  0  0
 12 71  1  0  0  0  0
 29 13  1  1  0  0  0
 13 37  1  0  0  0  0
 13 80  1  0  0  0  0
 38 14  1  6  0  0  0
 14 43  1  0  0  0  0
 14 93  1  0  0  0  0
 15 47  2  0  0  0  0
 16 17  1  1  0  0  0
 16 18  1  0  0  0  0
 16 19  1  0  0  0  0
 16 51  1  0  0  0  0
 17 20  1  0  0  0  0
 17 52  1  0  0  0  0
 17 53  1  0  0  0  0
 18 21  1  0  0  0  0
 18 54  1  0  0  0  0
 18 55  1  0  0  0  0
 19 56  1  0  0  0  0
 20 22  1  0  0  0  0
 20 57  1  0  0  0  0
 21 58  1  0  0  0  0
 21 59  1  0  0  0  0
 22 23  1  0  0  0  0
 22 61  1  0  0  0  0
 23 28  1  0  0  0  0
 23 63  1  0  0  0  0
 23 64  1  0  0  0  0
 24 25  1  0  0  0  0
 25 26  1  0  0  0  0
 25 66  1  0  0  0  0
 26 27  1  0  0  0  0
 26 67  1  0  0  0  0
 26 68  1  0  0  0  0
 27 31  1  0  0  0  0
 27 32  1  0  0  0  0
 27 70  1  0  0  0  0
 29 30  1  0  0  0  0
 29 33  1  0  0  0  0
 29 72  1  0  0  0  0
 31 73  1  0  0  0  0
 31 74  1  0  0  0  0
 31 75  1  0  0  0  0
 32 76  1  0  0  0  0
 32 77  1  0  0  0  0
 32 78  1  0  0  0  0
 33 34  1  0  0  0  0
 33 35  1  0  0  0  0
 33 79  1  0  0  0  0
 34 81  1  0  0  0  0
 34 82  1  0  0  0  0
 34 83  1  0  0  0  0
 35 84  1  0  0  0  0
 35 85  1  0  0  0  0
 35 86  1  0  0  0  0
 36 39  1  0  0  0  0
 36 87  1  0  0  0  0
 36 88  1  0  0  0  0
 37 38  1  0  0  0  0
 38 40  1  0  0  0  0
 38 89  1  0  0  0  0
 39 41  2  0  0  0  0
 39 42  1  0  0  0  0
 40 90  1  0  0  0  0
 40 91  1  0  0  0  0
 40 92  1  0  0  0  0
 41 44  1  0  0  0  0
 41 94  1  0  0  0  0
 42 45  2  0  0  0  0
 42 95  1  0  0  0  0
 43 47  1  0  0  0  0
 44 46  2  0  0  0  0
 44 96  1  0  0  0  0
 45 46  1  0  0  0  0
 45 97  1  0  0  0  0
 46 98  1  0  0  0  0
 47 48  1  0  0  0  0
 48 49  2  0  0  0  0
 48 99  1  0  0  0  0
 49 50  1  0  0  0  0
 50100  1  0  0  0  0
 50101  1  0  0  0  0
 50102  1  0  0  0  0
M  END
> <PUBCHEM_COMPOUND_CID>
102515539

> <PUBCHEM_COMPOUND_CANONICALIZED>
1

> <PUBCHEM_CACTVS_COMPLEXITY>
1140

> <PUBCHEM_CACTVS_HBOND_ACCEPTOR>
11

> <PUBCHEM_CACTVS_HBOND_DONOR>
7

> <PUBCHEM_CACTVS_ROTATABLE_BOND>
19

> <PUBCHEM_CACTVS_SUBSKEYS>
AAADcfB/vABAAAAAAAAAAAAAAAAAAWLAAAAwAAAAAAAAAAABwAAAHgQUCAAADSzl3gayjJLQBgSpA6XyWgCCAAAmIgAomKG+bNsIdjqAtbuWcYhm1hmI6ce/yOCOAAAAAAAAAAAAAAAAAAAAAAAAAAAAAA==

> <PUBCHEM_IUPAC_OPENEYE_NAME>
benzyl (3R,4S)-5-[(2R,3S)-2-hydroxypyrrolidin-3-yl]-4-[[(2S)-4-methyl-2-[[(2S)-3-methyl-2-[[(2S)-2-[(5-methylisoxazole-3-carbonyl)amino]propanoyl]amino]butanoyl]amino]pentanoyl]amino]-3-sulfanyl-pentanoate

> <PUBCHEM_IUPAC_CAS_NAME>
(3R,4S)-5-[(2R,3S)-2-hydroxy-3-pyrrolidinyl]-3-mercapto-4-[[(2S)-4-methyl-2-[[(2S)-3-methyl-2-[[(2S)-2-[[(5-methyl-3-isoxazolyl)-oxomethyl]amino]-1-oxopropyl]amino]-1-oxobutyl]amino]-1-oxopentyl]amino]pentanoic acid (phenylmethyl) ester

> <PUBCHEM_IUPAC_NAME_MARKUP>
benzyl (3<I>R</I>,4<I>S</I>)-5-[(2<I>R</I>,3<I>S</I>)-2-hydroxypyrrolidin-3-yl]-4-[[(2<I>S</I>)-4-methyl-2-[[(2<I>S</I>)-3-methyl-2-[[(2<I>S</I>)-2-[(5-methyl-1,2-oxazole-3-carbonyl)amino]propanoyl]amino]butanoyl]amino]pentanoyl]amino]-3-sulfanylpentanoate

> <PUBCHEM_IUPAC_NAME>
benzyl (3R,4S)-5-[(2R,3S)-2-hydroxypyrrolidin-3-yl]-4-[[(2S)-4-methyl-2-[[(2S)-3-methyl-2-[[(2S)-2-[(5-methyl-1,2-oxazole-3-carbonyl)amino]propanoyl]amino]butanoyl]amino]pentanoyl]amino]-3-sulfanylpentanoate

> <PUBCHEM_IUPAC_SYSTEMATIC_NAME>
(phenylmethyl) (3R,4S)-4-[[(2S)-4-methyl-2-[[(2S)-3-methyl-2-[[(2S)-2-[(5-methyl-1,2-oxazol-3-yl)carbonylamino]propanoyl]amino]butanoyl]amino]pentanoyl]amino]-5-[(2R,3S)-2-oxidanylpyrrolidin-3-yl]-3-sulfanyl-pentanoate

> <PUBCHEM_IUPAC_TRADITIONAL_NAME>
(3R,4S)-5-[(2R,3S)-2-hydroxypyrrolidin-3-yl]-3-mercapto-4-[[(2S)-4-methyl-2-[[(2S)-3-methyl-2-[[(2S)-2-[(5-methylisoxazole-3-carbonyl)amino]propanoyl]amino]butanoyl]amino]pentanoyl]amino]valeric acid benzyl ester

> <PUBCHEM_IUPAC_INCHI>
InChI=1S/C35H52N6O8S/c1-19(2)14-26(39-35(47)30(20(3)4)40-31(43)22(6)37-34(46)27-15-21(5)49-41-27)33(45)38-25(16-24-12-13-36-32(24)44)28(50)17-29(42)48-18-23-10-8-7-9-11-23/h7-11,15,19-20,22,24-26,28,30,32,36,44,50H,12-14,16-18H2,1-6H3,(H,37,46)(H,38,45)(H,39,47)(H,40,43)/t22-,24-,25-,26-,28+,30-,32+/m0/s1

> <PUBCHEM_IUPAC_INCHIKEY>
ZFBJBSRQHSPOKY-FAJPGWTDSA-N

> <PUBCHEM_XLOGP3_AA>
3.4

> <PUBCHEM_EXACT_MASS>
716.356734

> <PUBCHEM_MOLECULAR_FORMULA>
C35H52N6O8S

> <PUBCHEM_MOLECULAR_WEIGHT>
716.9

> <PUBCHEM_OPENEYE_CAN_SMILES>
CC1=CC(=NO1)C(=O)NC(C)C(=O)NC(C(C)C)C(=O)NC(CC(C)C)C(=O)NC(CC2CCNC2O)C(CC(=O)OCC3=CC=CC=C3)S

> <PUBCHEM_OPENEYE_ISO_SMILES>
CC1=CC(=NO1)C(=O)N[C@@H](C)C(=O)N[C@@H](C(C)C)C(=O)N[C@@H](CC(C)C)C(=O)N[C@@H](C[C@@H]2CCN[C@@H]2O)[C@@H](CC(=O)OCC3=CC=CC=C3)S

> <PUBCHEM_CACTVS_TPSA>
202

> <PUBCHEM_MONOISOTOPIC_WEIGHT>
716.356734

> <PUBCHEM_TOTAL_CHARGE>
0

> <PUBCHEM_HEAVY_ATOM_COUNT>
50

> <PUBCHEM_ATOM_DEF_STEREO_COUNT>
7

> <PUBCHEM_ATOM_UDEF_STEREO_COUNT>
0

> <PUBCHEM_BOND_DEF_STEREO_COUNT>
0

> <PUBCHEM_BOND_UDEF_STEREO_COUNT>
0

> <PUBCHEM_ISOTOPIC_ATOM_COUNT>
0

> <PUBCHEM_COMPONENT_COUNT>
1

> <PUBCHEM_CACTVS_TAUTO_COUNT>
-1

> <PUBCHEM_COORDINATE_TYPE>
1
5
255

> <PUBCHEM_BONDANNOTATIONS>
22  1  5
20  11  5
25  12  5
29  13  5
38  14  6
15  47  8
16  17  5
19  2  5
39  41  8
39  42  8
41  44  8
42  45  8
44  46  8
45  46  8
47  48  8
48  49  8
9  15  8
9  49  8

$$$$
114274675
  -OEChem-02212016592D

 45 46  0     1  0  0  0  0  0999 V2000
    3.7320   -2.1739    0.0000 O   0  0  0  0  0  0  0  0  0  0  0  0
    6.3301    0.3261    0.0000 O   0  0  0  0  0  0  0  0  0  0  0  0
    6.8301    4.8649    0.0000 O   0  0  0  0  0  0  0  0  0  0  0  0
    2.8660   -0.6739    0.0000 O   0  0  0  0  0  0  0  0  0  0  0  0
    5.4641    1.8261    0.0000 N   0  0  0  0  0  0  0  0  0  0  0  0
    3.7320    0.8261    0.0000 N   0  0  0  0  0  0  0  0  0  0  0  0
    7.1391    3.9139    0.0000 N   0  0  0  0  0  0  0  0  0  0  0  0
    4.5981    0.3261    0.0000 C   0  0  1  0  0  0  0  0  0  0  0  0
    4.5981   -0.6739    0.0000 C   0  0  0  0  0  0  0  0  0  0  0  0
    5.4641    0.8261    0.0000 C   0  0  0  0  0  0  0  0  0  0  0  0
    6.3301    2.3261    0.0000 C   0  0  0  0  0  0  0  0  0  0  0  0
    6.3301    3.3261    0.0000 C   0  0  0  0  0  0  0  0  0  0  0  0
    4.5981    2.3261    0.0000 C   0  0  0  0  0  0  0  0  0  0  0  0
    3.7320   -1.1739    0.0000 C   0  0  0  0  0  0  0  0  0  0  0  0
    5.5211    3.9139    0.0000 C   0  0  0  0  0  0  0  0  0  0  0  0
    2.8660   -2.6739    0.0000 C   0  0  0  0  0  0  0  0  0  0  0  0
    5.8301    4.8649    0.0000 C   0  0  0  0  0  0  0  0  0  0  0  0
    2.8660   -3.6739    0.0000 C   0  0  0  0  0  0  0  0  0  0  0  0
    5.2423    5.6739    0.0000 C   0  0  0  0  0  0  0  0  0  0  0  0
    2.0000   -4.1739    0.0000 C   0  0  0  0  0  0  0  0  0  0  0  0
    3.7320   -4.1739    0.0000 C   0  0  0  0  0  0  0  0  0  0  0  0
    2.0000   -5.1739    0.0000 C   0  0  0  0  0  0  0  0  0  0  0  0
    3.7320   -5.1739    0.0000 C   0  0  0  0  0  0  0  0  0  0  0  0
    2.8660   -5.6739    0.0000 C   0  0  0  0  0  0  0  0  0  0  0  0
    4.5981    0.9461    0.0000 H   0  0  0  0  0  0  0  0  0  0  0  0
    4.8101   -1.2565    0.0000 H   0  0  0  0  0  0  0  0  0  0  0  0
    5.2087   -0.5663    0.0000 H   0  0  0  0  0  0  0  0  0  0  0  0
    6.5422    1.7435    0.0000 H   0  0  0  0  0  0  0  0  0  0  0  0
    6.9407    2.4337    0.0000 H   0  0  0  0  0  0  0  0  0  0  0  0
    4.9081    2.8630    0.0000 H   0  0  0  0  0  0  0  0  0  0  0  0
    4.0611    2.6361    0.0000 H   0  0  0  0  0  0  0  0  0  0  0  0
    4.2881    1.7891    0.0000 H   0  0  0  0  0  0  0  0  0  0  0  0
    3.7320    1.4461    0.0000 H   0  0  0  0  0  0  0  0  0  0  0  0
    3.1951    0.5161    0.0000 H   0  0  0  0  0  0  0  0  0  0  0  0
    4.9315    3.7223    0.0000 H   0  0  0  0  0  0  0  0  0  0  0  0
    2.6540   -2.0913    0.0000 H   0  0  0  0  0  0  0  0  0  0  0  0
    2.2554   -2.7816    0.0000 H   0  0  0  0  0  0  0  0  0  0  0  0
    5.7439    6.0384    0.0000 H   0  0  0  0  0  0  0  0  0  0  0  0
    4.8779    6.1755    0.0000 H   0  0  0  0  0  0  0  0  0  0  0  0
    4.7408    5.3095    0.0000 H   0  0  0  0  0  0  0  0  0  0  0  0
    1.4631   -3.8639    0.0000 H   0  0  0  0  0  0  0  0  0  0  0  0
    4.2690   -3.8639    0.0000 H   0  0  0  0  0  0  0  0  0  0  0  0
    1.4631   -5.4839    0.0000 H   0  0  0  0  0  0  0  0  0  0  0  0
    4.2690   -5.4839    0.0000 H   0  0  0  0  0  0  0  0  0  0  0  0
    2.8660   -6.2939    0.0000 H   0  0  0  0  0  0  0  0  0  0  0  0
  1 14  1  0  0  0  0
  1 16  1  0  0  0  0
  2 10  2  0  0  0  0
  3  7  1  0  0  0  0
  3 17  1  0  0  0  0
  4 14  2  0  0  0  0
  5 10  1  0  0  0  0
  5 11  1  0  0  0  0
  5 13  1  0  0  0  0
  8  6  1  6  0  0  0
  6 33  1  0  0  0  0
  6 34  1  0  0  0  0
  7 12  2  0  0  0  0
  8  9  1  0  0  0  0
  8 10  1  0  0  0  0
  8 25  1  0  0  0  0
  9 14  1  0  0  0  0
  9 26  1  0  0  0  0
  9 27  1  0  0  0  0
 11 12  1  0  0  0  0
 11 28  1  0  0  0  0
 11 29  1  0  0  0  0
 12 15  1  0  0  0  0
 13 30  1  0  0  0  0
 13 31  1  0  0  0  0
 13 32  1  0  0  0  0
 15 17  2  0  0  0  0
 15 35  1  0  0  0  0
 16 18  1  0  0  0  0
 16 36  1  0  0  0  0
 16 37  1  0  0  0  0
 17 19  1  0  0  0  0
 18 20  2  0  0  0  0
 18 21  1  0  0  0  0
 19 38  1  0  0  0  0
 19 39  1  0  0  0  0
 19 40  1  0  0  0  0
 20 22  1  0  0  0  0
 20 41  1  0  0  0  0
 21 23  2  0  0  0  0
 21 42  1  0  0  0  0
 22 24  2  0  0  0  0
 22 43  1  0  0  0  0
 23 24  1  0  0  0  0
 23 44  1  0  0  0  0
 24 45  1  0  0  0  0
M  END
> <PUBCHEM_COMPOUND_CID>
114274675

> <PUBCHEM_COMPOUND_CANONICALIZED>
1

> <PUBCHEM_CACTVS_COMPLEXITY>
426

> <PUBCHEM_CACTVS_HBOND_ACCEPTOR>
6

> <PUBCHEM_CACTVS_HBOND_DONOR>
1

> <PUBCHEM_CACTVS_ROTATABLE_BOND>
8

> <PUBCHEM_CACTVS_SUBSKEYS>
AAADceB7OAAAAAAAAAAAAAAAAAAAAWAAAAAwAAAAAAAAAAABwAAAHgAUAAAADCzhngYyjJNQBACpA6XyWgCCAAAkIgAomKG+bNoIZjqAsZuWMYhm1hmI6Ue3wCAOAAAAAAAAAAAAAAAAAAAAAAAAAAAAAA==

> <PUBCHEM_IUPAC_OPENEYE_NAME>
benzyl (3S)-3-amino-4-[methyl-[(5-methylisoxazol-3-yl)methyl]amino]-4-oxo-butanoate

> <PUBCHEM_IUPAC_CAS_NAME>
(3S)-3-amino-4-[methyl-[(5-methyl-3-isoxazolyl)methyl]amino]-4-oxobutanoic acid (phenylmethyl) ester

> <PUBCHEM_IUPAC_NAME_MARKUP>
benzyl (3<I>S</I>)-3-amino-4-[methyl-[(5-methyl-1,2-oxazol-3-yl)methyl]amino]-4-oxobutanoate

> <PUBCHEM_IUPAC_NAME>
benzyl (3S)-3-amino-4-[methyl-[(5-methyl-1,2-oxazol-3-yl)methyl]amino]-4-oxobutanoate

> <PUBCHEM_IUPAC_SYSTEMATIC_NAME>
(phenylmethyl) (3S)-3-azanyl-4-[methyl-[(5-methyl-1,2-oxazol-3-yl)methyl]amino]-4-oxidanylidene-butanoate

> <PUBCHEM_IUPAC_TRADITIONAL_NAME>
(3S)-3-amino-4-keto-4-[methyl-[(5-methylisoxazol-3-yl)methyl]amino]butyric acid benzyl ester

> <PUBCHEM_IUPAC_INCHI>
InChI=1S/C17H21N3O4/c1-12-8-14(19-24-12)10-20(2)17(22)15(18)9-16(21)23-11-13-6-4-3-5-7-13/h3-8,15H,9-11,18H2,1-2H3/t15-/m0/s1

> <PUBCHEM_IUPAC_INCHIKEY>
BATXFTWEWGQSOO-HNNXBMFYSA-N

> <PUBCHEM_XLOGP3_AA>
0.5

> <PUBCHEM_EXACT_MASS>
331.153206

> <PUBCHEM_MOLECULAR_FORMULA>
C17H21N3O4

> <PUBCHEM_MOLECULAR_WEIGHT>
331.4

> <PUBCHEM_OPENEYE_CAN_SMILES>
CC1=CC(=NO1)CN(C)C(=O)C(CC(=O)OCC2=CC=CC=C2)N

> <PUBCHEM_OPENEYE_ISO_SMILES>
CC1=CC(=NO1)CN(C)C(=O)[C@H](CC(=O)OCC2=CC=CC=C2)N

> <PUBCHEM_CACTVS_TPSA>
98.7

> <PUBCHEM_MONOISOTOPIC_WEIGHT>
331.153206

> <PUBCHEM_TOTAL_CHARGE>
0

> <PUBCHEM_HEAVY_ATOM_COUNT>
24

> <PUBCHEM_ATOM_DEF_STEREO_COUNT>
1

> <PUBCHEM_ATOM_UDEF_STEREO_COUNT>
0

> <PUBCHEM_BOND_DEF_STEREO_COUNT>
0

> <PUBCHEM_BOND_UDEF_STEREO_COUNT>
0

> <PUBCHEM_ISOTOPIC_ATOM_COUNT>
0

> <PUBCHEM_COMPONENT_COUNT>
1

> <PUBCHEM_CACTVS_TAUTO_COUNT>
-1

> <PUBCHEM_COORDINATE_TYPE>
1
5
255

> <PUBCHEM_BONDANNOTATIONS>
12  15  8
15  17  8
18  20  8
18  21  8
20  22  8
21  23  8
22  24  8
23  24  8
3  17  8
3  7  8
8  6  6
7  12  8

$$$$
117870602
  -OEChem-02212016592D

 51 52  0     1  0  0  0  0  0999 V2000
    3.7320   -2.3080    0.0000 O   0  0  0  0  0  0  0  0  0  0  0  0
    6.3301   -0.8080    0.0000 O   0  0  0  0  0  0  0  0  0  0  0  0
    6.3301    0.1920    0.0000 O   0  0  0  0  0  0  0  0  0  0  0  0
    2.8660   -0.8080    0.0000 O   0  0  0  0  0  0  0  0  0  0  0  0
    8.7788    4.0284    0.0000 O   0  0  0  0  0  0  0  0  0  0  0  0
    5.4641    3.6920    0.0000 O   0  0  0  0  0  0  0  0  0  0  0  0
    4.5981    0.1920    0.0000 N   0  0  0  0  0  0  0  0  0  0  0  0
    6.3301    2.1920    0.0000 N   0  0  0  0  0  0  0  0  0  0  0  0
    8.1097    3.2853    0.0000 N   0  0  0  0  0  0  0  0  0  0  0  0
    4.5981   -0.8080    0.0000 C   0  0  1  0  0  0  0  0  0  0  0  0
    5.4641    1.6920    0.0000 C   0  0  2  0  0  0  0  0  0  0  0  0
    5.4641    0.6920    0.0000 C   0  0  0  0  0  0  0  0  0  0  0  0
    5.4641   -1.3080    0.0000 C   0  0  0  0  0  0  0  0  0  0  0  0
    3.7320   -1.3080    0.0000 C   0  0  0  0  0  0  0  0  0  0  0  0
    4.5981    2.1920    0.0000 C   0  0  0  0  0  0  0  0  0  0  0  0
    6.3301    3.1920    0.0000 C   0  0  0  0  0  0  0  0  0  0  0  0
    2.8660   -2.8080    0.0000 C   0  0  0  0  0  0  0  0  0  0  0  0
    2.8660   -3.8080    0.0000 C   0  0  0  0  0  0  0  0  0  0  0  0
    7.1962    3.6920    0.0000 C   0  0  0  0  0  0  0  0  0  0  0  0
    7.1962   -1.3080    0.0000 C   0  0  0  0  0  0  0  0  0  0  0  0
    7.3007    4.6865    0.0000 C   0  0  0  0  0  0  0  0  0  0  0  0
    2.0000   -4.3080    0.0000 C   0  0  0  0  0  0  0  0  0  0  0  0
    3.7320   -4.3080    0.0000 C   0  0  0  0  0  0  0  0  0  0  0  0
    8.2788    4.8944    0.0000 C   0  0  0  0  0  0  0  0  0  0  0  0
    2.0000   -5.3080    0.0000 C   0  0  0  0  0  0  0  0  0  0  0  0
    3.7320   -5.3080    0.0000 C   0  0  0  0  0  0  0  0  0  0  0  0
    2.8660   -5.8080    0.0000 C   0  0  0  0  0  0  0  0  0  0  0  0
    8.6856    5.8080    0.0000 C   0  0  0  0  0  0  0  0  0  0  0  0
    5.1350   -0.4980    0.0000 H   0  0  0  0  0  0  0  0  0  0  0  0
    5.4641    2.3120    0.0000 H   0  0  0  0  0  0  0  0  0  0  0  0
    4.0611    0.5020    0.0000 H   0  0  0  0  0  0  0  0  0  0  0  0
    5.0656   -1.7829    0.0000 H   0  0  0  0  0  0  0  0  0  0  0  0
    5.8626   -1.7829    0.0000 H   0  0  0  0  0  0  0  0  0  0  0  0
    4.9081    2.7290    0.0000 H   0  0  0  0  0  0  0  0  0  0  0  0
    4.0611    2.5020    0.0000 H   0  0  0  0  0  0  0  0  0  0  0  0
    4.2881    1.6551    0.0000 H   0  0  0  0  0  0  0  0  0  0  0  0
    6.8671    1.8820    0.0000 H   0  0  0  0  0  0  0  0  0  0  0  0
    2.6540   -2.2254    0.0000 H   0  0  0  0  0  0  0  0  0  0  0  0
    2.2554   -2.9156    0.0000 H   0  0  0  0  0  0  0  0  0  0  0  0
    6.8862   -1.8449    0.0000 H   0  0  0  0  0  0  0  0  0  0  0  0
    7.7331   -1.6180    0.0000 H   0  0  0  0  0  0  0  0  0  0  0  0
    7.5062   -0.7711    0.0000 H   0  0  0  0  0  0  0  0  0  0  0  0
    6.8399    5.1014    0.0000 H   0  0  0  0  0  0  0  0  0  0  0  0
    1.4631   -3.9980    0.0000 H   0  0  0  0  0  0  0  0  0  0  0  0
    4.2690   -3.9980    0.0000 H   0  0  0  0  0  0  0  0  0  0  0  0
    1.4631   -5.6180    0.0000 H   0  0  0  0  0  0  0  0  0  0  0  0
    4.2690   -5.6180    0.0000 H   0  0  0  0  0  0  0  0  0  0  0  0
    2.8660   -6.4280    0.0000 H   0  0  0  0  0  0  0  0  0  0  0  0
    9.2520    5.5558    0.0000 H   0  0  0  0  0  0  0  0  0  0  0  0
    8.9377    6.3744    0.0000 H   0  0  0  0  0  0  0  0  0  0  0  0
    8.1192    6.0602    0.0000 H   0  0  0  0  0  0  0  0  0  0  0  0
  1 14  1  0  0  0  0
  1 17  1  0  0  0  0
  2 13  1  0  0  0  0
  2 20  1  0  0  0  0
  3 12  2  0  0  0  0
  4 14  2  0  0  0  0
  5  9  1  0  0  0  0
  5 24  1  0  0  0  0
  6 16  2  0  0  0  0
 10  7  1  1  0  0  0
  7 12  1  0  0  0  0
  7 31  1  0  0  0  0
 11  8  1  6  0  0  0
  8 16  1  0  0  0  0
  8 37  1  0  0  0  0
  9 19  2  0  0  0  0
 10 13  1  0  0  0  0
 10 14  1  0  0  0  0
 10 29  1  0  0  0  0
 11 12  1  0  0  0  0
 11 15  1  0  0  0  0
 11 30  1  0  0  0  0
 13 32  1  0  0  0  0
 13 33  1  0  0  0  0
 15 34  1  0  0  0  0
 15 35  1  0  0  0  0
 15 36  1  0  0  0  0
 16 19  1  0  0  0  0
 17 18  1  0  0  0  0
 17 38  1  0  0  0  0
 17 39  1  0  0  0  0
 18 22  2  0  0  0  0
 18 23  1  0  0  0  0
 19 21  1  0  0  0  0
 20 40  1  0  0  0  0
 20 41  1  0  0  0  0
 20 42  1  0  0  0  0
 21 24  2  0  0  0  0
 21 43  1  0  0  0  0
 22 25  1  0  0  0  0
 22 44  1  0  0  0  0
 23 26  2  0  0  0  0
 23 45  1  0  0  0  0
 24 28  1  0  0  0  0
 25 27  2  0  0  0  0
 25 46  1  0  0  0  0
 26 27  1  0  0  0  0
 26 47  1  0  0  0  0
 27 48  1  0  0  0  0
 28 49  1  0  0  0  0
 28 50  1  0  0  0  0
 28 51  1  0  0  0  0
M  END
> <PUBCHEM_COMPOUND_CID>
117870602

> <PUBCHEM_COMPOUND_CANONICALIZED>
1

> <PUBCHEM_CACTVS_COMPLEXITY>
538

> <PUBCHEM_CACTVS_HBOND_ACCEPTOR>
7

> <PUBCHEM_CACTVS_HBOND_DONOR>
2

> <PUBCHEM_CACTVS_ROTATABLE_BOND>
10

> <PUBCHEM_CACTVS_SUBSKEYS>
AAADceB7OAAAAAAAAAAAAAAAAAAAAWAAAAAwAAAAAAAAAAABwAAAHgAUAAAADCzhngYyjJLQBACpA6XyWgCCAAAmIgAomKG+bNoKZj6AtbuXMYhn9hmY6ce/wCAOAAAAAAAAAAAAAAAAAAAAAAAAAAAAAA==

> <PUBCHEM_IUPAC_OPENEYE_NAME>
benzyl (2S)-3-methoxy-2-[[(2S)-2-[(5-methylisoxazole-3-carbonyl)amino]propanoyl]amino]propanoate

> <PUBCHEM_IUPAC_CAS_NAME>
(2S)-3-methoxy-2-[[(2S)-2-[[(5-methyl-3-isoxazolyl)-oxomethyl]amino]-1-oxopropyl]amino]propanoic acid (phenylmethyl) ester

> <PUBCHEM_IUPAC_NAME_MARKUP>
benzyl (2<I>S</I>)-3-methoxy-2-[[(2<I>S</I>)-2-[(5-methyl-1,2-oxazole-3-carbonyl)amino]propanoyl]amino]propanoate

> <PUBCHEM_IUPAC_NAME>
benzyl (2S)-3-methoxy-2-[[(2S)-2-[(5-methyl-1,2-oxazole-3-carbonyl)amino]propanoyl]amino]propanoate

> <PUBCHEM_IUPAC_SYSTEMATIC_NAME>
(phenylmethyl) (2S)-3-methoxy-2-[[(2S)-2-[(5-methyl-1,2-oxazol-3-yl)carbonylamino]propanoyl]amino]propanoate

> <PUBCHEM_IUPAC_TRADITIONAL_NAME>
(2S)-3-methoxy-2-[[(2S)-2-[(5-methylisoxazole-3-carbonyl)amino]propanoyl]amino]propionic acid benzyl ester

> <PUBCHEM_IUPAC_INCHI>
InChI=1S/C19H23N3O6/c1-12-9-15(22-28-12)18(24)20-13(2)17(23)21-16(11-26-3)19(25)27-10-14-7-5-4-6-8-14/h4-9,13,16H,10-11H2,1-3H3,(H,20,24)(H,21,23)/t13-,16-/m0/s1

> <PUBCHEM_IUPAC_INCHIKEY>
JONYVYCKHUPALH-BBRMVZONSA-N

> <PUBCHEM_XLOGP3_AA>
1.4

> <PUBCHEM_EXACT_MASS>
389.158685

> <PUBCHEM_MOLECULAR_FORMULA>
C19H23N3O6

> <PUBCHEM_MOLECULAR_WEIGHT>
389.4

> <PUBCHEM_OPENEYE_CAN_SMILES>
CC1=CC(=NO1)C(=O)NC(C)C(=O)NC(COC)C(=O)OCC2=CC=CC=C2

> <PUBCHEM_OPENEYE_ISO_SMILES>
CC1=CC(=NO1)C(=O)N[C@@H](C)C(=O)N[C@@H](COC)C(=O)OCC2=CC=CC=C2

> <PUBCHEM_CACTVS_TPSA>
120

> <PUBCHEM_MONOISOTOPIC_WEIGHT>
389.158685

> <PUBCHEM_TOTAL_CHARGE>
0

> <PUBCHEM_HEAVY_ATOM_COUNT>
28

> <PUBCHEM_ATOM_DEF_STEREO_COUNT>
2

> <PUBCHEM_ATOM_UDEF_STEREO_COUNT>
0

> <PUBCHEM_BOND_DEF_STEREO_COUNT>
0

> <PUBCHEM_BOND_UDEF_STEREO_COUNT>
0

> <PUBCHEM_ISOTOPIC_ATOM_COUNT>
0

> <PUBCHEM_COMPONENT_COUNT>
1

> <PUBCHEM_CACTVS_TAUTO_COUNT>
-1

> <PUBCHEM_COORDINATE_TYPE>
1
5
255

> <PUBCHEM_BONDANNOTATIONS>
18  22  8
18  23  8
19  21  8
21  24  8
22  25  8
23  26  8
25  27  8
26  27  8
5  24  8
5  9  8
10  7  5
11  8  6
9  19  8

$$$$
117870603
  -OEChem-02212016592D

 51 52  0     1  0  0  0  0  0999 V2000
    3.7320   -2.3080    0.0000 O   0  0  0  0  0  0  0  0  0  0  0  0
    6.3301   -0.8080    0.0000 O   0  0  0  0  0  0  0  0  0  0  0  0
    6.3301    0.1920    0.0000 O   0  0  0  0  0  0  0  0  0  0  0  0
    2.8660   -0.8080    0.0000 O   0  0  0  0  0  0  0  0  0  0  0  0
    8.7788    4.0284    0.0000 O   0  0  0  0  0  0  0  0  0  0  0  0
    5.4641    3.6920    0.0000 O   0  0  0  0  0  0  0  0  0  0  0  0
    4.5981    0.1920    0.0000 N   0  0  0  0  0  0  0  0  0  0  0  0
    6.3301    2.1920    0.0000 N   0  0  0  0  0  0  0  0  0  0  0  0
    8.1097    3.2853    0.0000 N   0  0  0  0  0  0  0  0  0  0  0  0
    4.5981   -0.8080    0.0000 C   0  0  3  0  0  0  0  0  0  0  0  0
    5.4641    1.6920    0.0000 C   0  0  3  0  0  0  0  0  0  0  0  0
    5.4641    0.6920    0.0000 C   0  0  0  0  0  0  0  0  0  0  0  0
    5.4641   -1.3080    0.0000 C   0  0  0  0  0  0  0  0  0  0  0  0
    3.7320   -1.3080    0.0000 C   0  0  0  0  0  0  0  0  0  0  0  0
    4.5981    2.1920    0.0000 C   0  0  0  0  0  0  0  0  0  0  0  0
    6.3301    3.1920    0.0000 C   0  0  0  0  0  0  0  0  0  0  0  0
    2.8660   -2.8080    0.0000 C   0  0  0  0  0  0  0  0  0  0  0  0
    2.8660   -3.8080    0.0000 C   0  0  0  0  0  0  0  0  0  0  0  0
    7.1962    3.6920    0.0000 C   0  0  0  0  0  0  0  0  0  0  0  0
    7.1962   -1.3080    0.0000 C   0  0  0  0  0  0  0  0  0  0  0  0
    7.3007    4.6865    0.0000 C   0  0  0  0  0  0  0  0  0  0  0  0
    2.0000   -4.3080    0.0000 C   0  0  0  0  0  0  0  0  0  0  0  0
    3.7320   -4.3080    0.0000 C   0  0  0  0  0  0  0  0  0  0  0  0
    8.2788    4.8944    0.0000 C   0  0  0  0  0  0  0  0  0  0  0  0
    2.0000   -5.3080    0.0000 C   0  0  0  0  0  0  0  0  0  0  0  0
    3.7320   -5.3080    0.0000 C   0  0  0  0  0  0  0  0  0  0  0  0
    2.8660   -5.8080    0.0000 C   0  0  0  0  0  0  0  0  0  0  0  0
    8.6856    5.8080    0.0000 C   0  0  0  0  0  0  0  0  0  0  0  0
    5.1350   -0.4980    0.0000 H   0  0  0  0  0  0  0  0  0  0  0  0
    5.4641    2.3120    0.0000 H   0  0  0  0  0  0  0  0  0  0  0  0
    4.0611    0.5020    0.0000 H   0  0  0  0  0  0  0  0  0  0  0  0
    5.0656   -1.7829    0.0000 H   0  0  0  0  0  0  0  0  0  0  0  0
    5.8626   -1.7829    0.0000 H   0  0  0  0  0  0  0  0  0  0  0  0
    4.9081    2.7290    0.0000 H   0  0  0  0  0  0  0  0  0  0  0  0
    4.0611    2.5020    0.0000 H   0  0  0  0  0  0  0  0  0  0  0  0
    4.2881    1.6551    0.0000 H   0  0  0  0  0  0  0  0  0  0  0  0
    6.8671    1.8820    0.0000 H   0  0  0  0  0  0  0  0  0  0  0  0
    2.6540   -2.2254    0.0000 H   0  0  0  0  0  0  0  0  0  0  0  0
    2.2554   -2.9156    0.0000 H   0  0  0  0  0  0  0  0  0  0  0  0
    6.8862   -1.8449    0.0000 H   0  0  0  0  0  0  0  0  0  0  0  0
    7.7331   -1.6180    0.0000 H   0  0  0  0  0  0  0  0  0  0  0  0
    7.5062   -0.7711    0.0000 H   0  0  0  0  0  0  0  0  0  0  0  0
    6.8399    5.1014    0.0000 H   0  0  0  0  0  0  0  0  0  0  0  0
    1.4631   -3.9980    0.0000 H   0  0  0  0  0  0  0  0  0  0  0  0
    4.2690   -3.9980    0.0000 H   0  0  0  0  0  0  0  0  0  0  0  0
    1.4631   -5.6180    0.0000 H   0  0  0  0  0  0  0  0  0  0  0  0
    4.2690   -5.6180    0.0000 H   0  0  0  0  0  0  0  0  0  0  0  0
    2.8660   -6.4280    0.0000 H   0  0  0  0  0  0  0  0  0  0  0  0
    9.2520    5.5558    0.0000 H   0  0  0  0  0  0  0  0  0  0  0  0
    8.9377    6.3744    0.0000 H   0  0  0  0  0  0  0  0  0  0  0  0
    8.1192    6.0602    0.0000 H   0  0  0  0  0  0  0  0  0  0  0  0
  1 14  1  0  0  0  0
  1 17  1  0  0  0  0
  2 13  1  0  0  0  0
  2 20  1  0  0  0  0
  3 12  2  0  0  0  0
  4 14  2  0  0  0  0
  5  9  1  0  0  0  0
  5 24  1  0  0  0  0
  6 16  2  0  0  0  0
  7 10  1  0  0  0  0
  7 12  1  0  0  0  0
  7 31  1  0  0  0  0
  8 11  1  0  0  0  0
  8 16  1  0  0  0  0
  8 37  1  0  0  0  0
  9 19  2  0  0  0  0
 10 13  1  0  0  0  0
 10 14  1  0  0  0  0
 10 29  1  0  0  0  0
 11 12  1  0  0  0  0
 11 15  1  0  0  0  0
 11 30  1  0  0  0  0
 13 32  1  0  0  0  0
 13 33  1  0  0  0  0
 15 34  1  0  0  0  0
 15 35  1  0  0  0  0
 15 36  1  0  0  0  0
 16 19  1  0  0  0  0
 17 18  1  0  0  0  0
 17 38  1  0  0  0  0
 17 39  1  0  0  0  0
 18 22  2  0  0  0  0
 18 23  1  0  0  0  0
 19 21  1  0  0  0  0
 20 40  1  0  0  0  0
 20 41  1  0  0  0  0
 20 42  1  0  0  0  0
 21 24  2  0  0  0  0
 21 43  1  0  0  0  0
 22 25  1  0  0  0  0
 22 44  1  0  0  0  0
 23 26  2  0  0  0  0
 23 45  1  0  0  0  0
 24 28  1  0  0  0  0
 25 27  2  0  0  0  0
 25 46  1  0  0  0  0
 26 27  1  0  0  0  0
 26 47  1  0  0  0  0
 27 48  1  0  0  0  0
 28 49  1  0  0  0  0
 28 50  1  0  0  0  0
 28 51  1  0  0  0  0
M  END
> <PUBCHEM_COMPOUND_CID>
117870603

> <PUBCHEM_COMPOUND_CANONICALIZED>
1

> <PUBCHEM_CACTVS_COMPLEXITY>
538

> <PUBCHEM_CACTVS_HBOND_ACCEPTOR>
7

> <PUBCHEM_CACTVS_HBOND_DONOR>
2

> <PUBCHEM_CACTVS_ROTATABLE_BOND>
10

> <PUBCHEM_CACTVS_SUBSKEYS>
AAADceB7OAAAAAAAAAAAAAAAAAAAAWAAAAAwAAAAAAAAAAABwAAAHgAUAAAADCzhngYyjJLQBACpA6XyWgCCAAAmIgAomKG+bNoKZj6AtbuXMYhn9hmY6ce/wCAOAAAAAAAAAAAAAAAAAAAAAAAAAAAAAA==

> <PUBCHEM_IUPAC_OPENEYE_NAME>
benzyl 3-methoxy-2-[2-[(5-methylisoxazole-3-carbonyl)amino]propanoylamino]propanoate

> <PUBCHEM_IUPAC_CAS_NAME>
3-methoxy-2-[[2-[[(5-methyl-3-isoxazolyl)-oxomethyl]amino]-1-oxopropyl]amino]propanoic acid (phenylmethyl) ester

> <PUBCHEM_IUPAC_NAME_MARKUP>
benzyl 3-methoxy-2-[2-[(5-methyl-1,2-oxazole-3-carbonyl)amino]propanoylamino]propanoate

> <PUBCHEM_IUPAC_NAME>
benzyl 3-methoxy-2-[2-[(5-methyl-1,2-oxazole-3-carbonyl)amino]propanoylamino]propanoate

> <PUBCHEM_IUPAC_SYSTEMATIC_NAME>
(phenylmethyl) 3-methoxy-2-[2-[(5-methyl-1,2-oxazol-3-yl)carbonylamino]propanoylamino]propanoate

> <PUBCHEM_IUPAC_TRADITIONAL_NAME>
3-methoxy-2-[2-[(5-methylisoxazole-3-carbonyl)amino]propanoylamino]propionic acid benzyl ester

> <PUBCHEM_IUPAC_INCHI>
InChI=1S/C19H23N3O6/c1-12-9-15(22-28-12)18(24)20-13(2)17(23)21-16(11-26-3)19(25)27-10-14-7-5-4-6-8-14/h4-9,13,16H,10-11H2,1-3H3,(H,20,24)(H,21,23)

> <PUBCHEM_IUPAC_INCHIKEY>
JONYVYCKHUPALH-UHFFFAOYSA-N

> <PUBCHEM_XLOGP3_AA>
1.4

> <PUBCHEM_EXACT_MASS>
389.158685

> <PUBCHEM_MOLECULAR_FORMULA>
C19H23N3O6

> <PUBCHEM_MOLECULAR_WEIGHT>
389.4

> <PUBCHEM_OPENEYE_CAN_SMILES>
CC1=CC(=NO1)C(=O)NC(C)C(=O)NC(COC)C(=O)OCC2=CC=CC=C2

> <PUBCHEM_OPENEYE_ISO_SMILES>
CC1=CC(=NO1)C(=O)NC(C)C(=O)NC(COC)C(=O)OCC2=CC=CC=C2

> <PUBCHEM_CACTVS_TPSA>
120

> <PUBCHEM_MONOISOTOPIC_WEIGHT>
389.158685

> <PUBCHEM_TOTAL_CHARGE>
0

> <PUBCHEM_HEAVY_ATOM_COUNT>
28

> <PUBCHEM_ATOM_DEF_STEREO_COUNT>
0

> <PUBCHEM_ATOM_UDEF_STEREO_COUNT>
2

> <PUBCHEM_BOND_DEF_STEREO_COUNT>
0

> <PUBCHEM_BOND_UDEF_STEREO_COUNT>
0

> <PUBCHEM_ISOTOPIC_ATOM_COUNT>
0

> <PUBCHEM_COMPONENT_COUNT>
1

> <PUBCHEM_CACTVS_TAUTO_COUNT>
-1

> <PUBCHEM_COORDINATE_TYPE>
1
5
255

> <PUBCHEM_BONDANNOTATIONS>
10  13  3
11  15  3
18  22  8
18  23  8
19  21  8
21  24  8
22  25  8
23  26  8
25  27  8
26  27  8
5  24  8
5  9  8
9  19  8

$$$$
118536602
  -OEChem-02212016592D

 48 50  0     1  0  0  0  0  0999 V2000
   10.9320    4.0999    0.0000 O   0  0  0  0  0  0  0  0  0  0  0  0
    6.3657    4.1227    0.0000 O   0  0  0  0  0  0  0  0  0  0  0  0
    6.3776    0.7910    0.0000 O   0  0  0  0  0  0  0  0  0  0  0  0
    4.5981   -0.3023    0.0000 O   0  0  0  0  0  0  0  0  0  0  0  0
    2.8660   -0.3023    0.0000 O   0  0  0  0  0  0  0  0  0  0  0  0
    7.9480    3.4182    0.0000 N   0  0  0  0  0  0  0  0  0  0  0  0
    7.0468    1.5341    0.0000 N   0  0  0  0  0  0  0  0  0  0  0  0
    9.3493    4.4363    0.0000 C   0  0  3  0  0  0  0  0  0  0  0  0
    9.8493    5.3023    0.0000 C   0  0  0  0  0  0  0  0  0  0  0  0
   10.0184    3.6931    0.0000 C   0  0  0  0  0  0  0  0  0  0  0  0
    8.3548    4.3318    0.0000 C   0  0  0  0  0  0  0  0  0  0  0  0
   10.8274    5.0944    0.0000 C   0  0  0  0  0  0  0  0  0  0  0  0
    6.9535    3.3137    0.0000 C   0  0  0  0  0  0  0  0  0  0  0  0
    6.5468    2.4001    0.0000 C   0  0  0  0  0  0  0  0  0  0  0  0
    5.5686    2.1922    0.0000 C   0  0  0  0  0  0  0  0  0  0  0  0
    2.8660   -2.3023    0.0000 C   0  0  0  0  0  0  0  0  0  0  0  0
    5.4641    1.1977    0.0000 C   0  0  0  0  0  0  0  0  0  0  0  0
    3.7320   -1.8023    0.0000 C   0  0  0  0  0  0  0  0  0  0  0  0
    2.8660   -3.3023    0.0000 C   0  0  0  0  0  0  0  0  0  0  0  0
    4.5981    0.6977    0.0000 C   0  0  0  0  0  0  0  0  0  0  0  0
    3.7320   -0.8023    0.0000 C   0  0  0  0  0  0  0  0  0  0  0  0
    2.0000   -3.8023    0.0000 C   0  0  0  0  0  0  0  0  0  0  0  0
    3.7320   -3.8023    0.0000 C   0  0  0  0  0  0  0  0  0  0  0  0
    2.0000   -4.8023    0.0000 C   0  0  0  0  0  0  0  0  0  0  0  0
    3.7320   -4.8023    0.0000 C   0  0  0  0  0  0  0  0  0  0  0  0
    2.8660   -5.3023    0.0000 C   0  0  0  0  0  0  0  0  0  0  0  0
    9.0116    4.9562    0.0000 H   0  0  0  0  0  0  0  0  0  0  0  0
   10.0409    5.8920    0.0000 H   0  0  0  0  0  0  0  0  0  0  0  0
    9.2829    5.5545    0.0000 H   0  0  0  0  0  0  0  0  0  0  0  0
    9.5168    3.3287    0.0000 H   0  0  0  0  0  0  0  0  0  0  0  0
   10.3284    3.1562    0.0000 H   0  0  0  0  0  0  0  0  0  0  0  0
    8.3980    4.9502    0.0000 H   0  0  0  0  0  0  0  0  0  0  0  0
    7.7532    4.4817    0.0000 H   0  0  0  0  0  0  0  0  0  0  0  0
   11.4474    5.0944    0.0000 H   0  0  0  0  0  0  0  0  0  0  0  0
   10.8923    5.7110    0.0000 H   0  0  0  0  0  0  0  0  0  0  0  0
    8.3125    2.9166    0.0000 H   0  0  0  0  0  0  0  0  0  0  0  0
    5.1079    2.6071    0.0000 H   0  0  0  0  0  0  0  0  0  0  0  0
    2.6540   -1.7197    0.0000 H   0  0  0  0  0  0  0  0  0  0  0  0
    2.2554   -2.4100    0.0000 H   0  0  0  0  0  0  0  0  0  0  0  0
    3.9441   -2.3849    0.0000 H   0  0  0  0  0  0  0  0  0  0  0  0
    4.3426   -1.6946    0.0000 H   0  0  0  0  0  0  0  0  0  0  0  0
    4.3860    1.2803    0.0000 H   0  0  0  0  0  0  0  0  0  0  0  0
    3.9875    0.5900    0.0000 H   0  0  0  0  0  0  0  0  0  0  0  0
    1.4631   -3.4923    0.0000 H   0  0  0  0  0  0  0  0  0  0  0  0
    4.2690   -3.4923    0.0000 H   0  0  0  0  0  0  0  0  0  0  0  0
    1.4631   -5.1123    0.0000 H   0  0  0  0  0  0  0  0  0  0  0  0
    4.2690   -5.1123    0.0000 H   0  0  0  0  0  0  0  0  0  0  0  0
    2.8660   -5.9223    0.0000 H   0  0  0  0  0  0  0  0  0  0  0  0
  1 10  1  0  0  0  0
  1 12  1  0  0  0  0
  2 13  2  0  0  0  0
  3  7  1  0  0  0  0
  3 17  1  0  0  0  0
  4 20  1  0  0  0  0
  4 21  1  0  0  0  0
  5 21  2  0  0  0  0
  6 11  1  0  0  0  0
  6 13  1  0  0  0  0
  6 36  1  0  0  0  0
  7 14  2  0  0  0  0
  8  9  1  0  0  0  0
  8 10  1  0  0  0  0
  8 11  1  0  0  0  0
  8 27  1  0  0  0  0
  9 12  1  0  0  0  0
  9 28  1  0  0  0  0
  9 29  1  0  0  0  0
 10 30  1  0  0  0  0
 10 31  1  0  0  0  0
 11 32  1  0  0  0  0
 11 33  1  0  0  0  0
 12 34  1  0  0  0  0
 12 35  1  0  0  0  0
 13 14  1  0  0  0  0
 14 15  1  0  0  0  0
 15 17  2  0  0  0  0
 15 37  1  0  0  0  0
 16 18  1  0  0  0  0
 16 19  1  0  0  0  0
 16 38  1  0  0  0  0
 16 39  1  0  0  0  0
 17 20  1  0  0  0  0
 18 21  1  0  0  0  0
 18 40  1  0  0  0  0
 18 41  1  0  0  0  0
 19 22  2  0  0  0  0
 19 23  1  0  0  0  0
 20 42  1  0  0  0  0
 20 43  1  0  0  0  0
 22 24  1  0  0  0  0
 22 44  1  0  0  0  0
 23 25  2  0  0  0  0
 23 45  1  0  0  0  0
 24 26  2  0  0  0  0
 24 46  1  0  0  0  0
 25 26  1  0  0  0  0
 25 47  1  0  0  0  0
 26 48  1  0  0  0  0
M  END
> <PUBCHEM_COMPOUND_CID>
118536602

> <PUBCHEM_COMPOUND_CANONICALIZED>
1

> <PUBCHEM_CACTVS_COMPLEXITY>
467

> <PUBCHEM_CACTVS_HBOND_ACCEPTOR>
6

> <PUBCHEM_CACTVS_HBOND_DONOR>
1

> <PUBCHEM_CACTVS_ROTATABLE_BOND>
9

> <PUBCHEM_CACTVS_SUBSKEYS>
AAADceB7OAAAAAAAAAAAAAAAAAAAAWJAAAAwAAAAAAAAAAABwAAAHgAUAAAADQzhngYwjJLQBACpA6XyWgKCAAAmIgAomKH+bNoJZjqAtZ+WMYhm1hmK6ce/3KKOAAAAAAAAAAAAAAAAAAAAAAAAAAAAAA==

> <PUBCHEM_IUPAC_OPENEYE_NAME>
[3-(tetrahydrofuran-3-ylmethylcarbamoyl)isoxazol-5-yl]methyl 3-phenylpropanoate

> <PUBCHEM_IUPAC_CAS_NAME>
3-phenylpropanoic acid [3-[oxo-(3-oxolanylmethylamino)methyl]-5-isoxazolyl]methyl ester

> <PUBCHEM_IUPAC_NAME_MARKUP>
[3-(oxolan-3-ylmethylcarbamoyl)-1,2-oxazol-5-yl]methyl 3-phenylpropanoate

> <PUBCHEM_IUPAC_NAME>
[3-(oxolan-3-ylmethylcarbamoyl)-1,2-oxazol-5-yl]methyl 3-phenylpropanoate

> <PUBCHEM_IUPAC_SYSTEMATIC_NAME>
[3-(oxolan-3-ylmethylcarbamoyl)-1,2-oxazol-5-yl]methyl 3-phenylpropanoate

> <PUBCHEM_IUPAC_TRADITIONAL_NAME>
3-phenylpropionic acid [3-(tetrahydrofuran-3-ylmethylcarbamoyl)isoxazol-5-yl]methyl ester

> <PUBCHEM_IUPAC_INCHI>
InChI=1S/C19H22N2O5/c22-18(7-6-14-4-2-1-3-5-14)25-13-16-10-17(21-26-16)19(23)20-11-15-8-9-24-12-15/h1-5,10,15H,6-9,11-13H2,(H,20,23)

> <PUBCHEM_IUPAC_INCHIKEY>
LHPIVTAFPNPLSV-UHFFFAOYSA-N

> <PUBCHEM_XLOGP3_AA>
1.8

> <PUBCHEM_EXACT_MASS>
358.152872

> <PUBCHEM_MOLECULAR_FORMULA>
C19H22N2O5

> <PUBCHEM_MOLECULAR_WEIGHT>
358.4

> <PUBCHEM_OPENEYE_CAN_SMILES>
C1COCC1CNC(=O)C2=NOC(=C2)COC(=O)CCC3=CC=CC=C3

> <PUBCHEM_OPENEYE_ISO_SMILES>
C1COCC1CNC(=O)C2=NOC(=C2)COC(=O)CCC3=CC=CC=C3

> <PUBCHEM_CACTVS_TPSA>
90.7

> <PUBCHEM_MONOISOTOPIC_WEIGHT>
358.152872

> <PUBCHEM_TOTAL_CHARGE>
0

> <PUBCHEM_HEAVY_ATOM_COUNT>
26

> <PUBCHEM_ATOM_DEF_STEREO_COUNT>
0

> <PUBCHEM_ATOM_UDEF_STEREO_COUNT>
1

> <PUBCHEM_BOND_DEF_STEREO_COUNT>
0

> <PUBCHEM_BOND_UDEF_STEREO_COUNT>
0

> <PUBCHEM_ISOTOPIC_ATOM_COUNT>
0

> <PUBCHEM_COMPONENT_COUNT>
1

> <PUBCHEM_CACTVS_TAUTO_COUNT>
-1

> <PUBCHEM_COORDINATE_TYPE>
1
5
255

> <PUBCHEM_BONDANNOTATIONS>
14  15  8
15  17  8
19  22  8
19  23  8
22  24  8
23  25  8
24  26  8
25  26  8
3  17  8
3  7  8
7  14  8
8  11  3

$$$$
118608805
  -OEChem-02212016592D

 41 43  0     0  0  0  0  0  0999 V2000
    3.4013    4.1073    0.0000 O   0  0  0  0  0  0  0  0  0  0  0  0
    2.0000    3.0892    0.0000 O   0  0  0  0  0  0  0  0  0  0  0  0
    3.6001   -0.5865    0.0000 O   0  0  0  0  0  0  0  0  0  0  0  0
    6.4914   -2.2420    0.0000 O   0  0  0  0  0  0  0  0  0  0  0  0
    5.0014    0.4316    0.0000 N   0  0  0  0  0  0  0  0  0  0  0  0
    6.1824   -1.2910    0.0000 N   0  0  0  0  0  0  0  0  0  0  0  0
    4.4136    1.2406    0.0000 C   0  0  0  0  0  0  0  0  0  0  0  0
    3.5823    2.3847    0.0000 C   0  0  0  0  0  0  0  0  0  0  0  0
    4.5700    2.2283    0.0000 C   0  0  0  0  0  0  0  0  0  0  0  0
    3.4259    1.3970    0.0000 C   0  0  0  0  0  0  0  0  0  0  0  0
    2.9945    3.1937    0.0000 C   0  0  0  0  0  0  0  0  0  0  0  0
    4.5946   -0.4820    0.0000 C   0  0  0  0  0  0  0  0  0  0  0  0
    5.1824   -1.2910    0.0000 C   0  0  0  0  0  0  0  0  0  0  0  0
    2.8135    4.9163    0.0000 C   0  0  0  0  0  0  0  0  0  0  0  0
    4.8734   -2.2420    0.0000 C   0  0  0  0  0  0  0  0  0  0  0  0
    3.2202    5.8298    0.0000 C   0  0  0  0  0  0  0  0  0  0  0  0
    5.6824   -2.8298    0.0000 C   0  0  0  0  0  0  0  0  0  0  0  0
    5.6824   -3.8298    0.0000 C   0  0  0  0  0  0  0  0  0  0  0  0
    4.8164   -4.3298    0.0000 C   0  0  0  0  0  0  0  0  0  0  0  0
    6.5484   -4.3298    0.0000 C   0  0  0  0  0  0  0  0  0  0  0  0
    4.8164   -5.3298    0.0000 C   0  0  0  0  0  0  0  0  0  0  0  0
    6.5484   -5.3298    0.0000 C   0  0  0  0  0  0  0  0  0  0  0  0
    5.6824   -5.8298    0.0000 C   0  0  0  0  0  0  0  0  0  0  0  0
    4.0896    0.7120    0.0000 H   0  0  0  0  0  0  0  0  0  0  0  0
    3.9063    2.9134    0.0000 H   0  0  0  0  0  0  0  0  0  0  0  0
    5.1824    2.1313    0.0000 H   0  0  0  0  0  0  0  0  0  0  0  0
    4.6670    2.8406    0.0000 H   0  0  0  0  0  0  0  0  0  0  0  0
    2.8135    1.4940    0.0000 H   0  0  0  0  0  0  0  0  0  0  0  0
    3.3289    0.7847    0.0000 H   0  0  0  0  0  0  0  0  0  0  0  0
    5.6180    0.4964    0.0000 H   0  0  0  0  0  0  0  0  0  0  0  0
    2.2995    5.2630    0.0000 H   0  0  0  0  0  0  0  0  0  0  0  0
    2.3828    4.4703    0.0000 H   0  0  0  0  0  0  0  0  0  0  0  0
    4.2837   -2.4336    0.0000 H   0  0  0  0  0  0  0  0  0  0  0  0
    3.7866    5.5777    0.0000 H   0  0  0  0  0  0  0  0  0  0  0  0
    3.4724    6.3962    0.0000 H   0  0  0  0  0  0  0  0  0  0  0  0
    2.6538    6.0820    0.0000 H   0  0  0  0  0  0  0  0  0  0  0  0
    4.2794   -4.0198    0.0000 H   0  0  0  0  0  0  0  0  0  0  0  0
    7.0854   -4.0198    0.0000 H   0  0  0  0  0  0  0  0  0  0  0  0
    4.2794   -5.6398    0.0000 H   0  0  0  0  0  0  0  0  0  0  0  0
    7.0854   -5.6398    0.0000 H   0  0  0  0  0  0  0  0  0  0  0  0
    5.6824   -6.4498    0.0000 H   0  0  0  0  0  0  0  0  0  0  0  0
  1 11  1  0  0  0  0
  1 14  1  0  0  0  0
  2 11  2  0  0  0  0
  3 12  2  0  0  0  0
  4  6  1  0  0  0  0
  4 17  1  0  0  0  0
  5  7  1  0  0  0  0
  5 12  1  0  0  0  0
  5 30  1  0  0  0  0
  6 13  2  0  0  0  0
  7  9  1  0  0  0  0
  7 10  1  0  0  0  0
  7 24  1  0  0  0  0
  8  9  1  0  0  0  0
  8 10  1  0  0  0  0
  8 11  1  0  0  0  0
  8 25  1  0  0  0  0
  9 26  1  0  0  0  0
  9 27  1  0  0  0  0
 10 28  1  0  0  0  0
 10 29  1  0  0  0  0
 12 13  1  0  0  0  0
 13 15  1  0  0  0  0
 14 16  1  0  0  0  0
 14 31  1  0  0  0  0
 14 32  1  0  0  0  0
 15 17  2  0  0  0  0
 15 33  1  0  0  0  0
 16 34  1  0  0  0  0
 16 35  1  0  0  0  0
 16 36  1  0  0  0  0
 17 18  1  0  0  0  0
 18 19  2  0  0  0  0
 18 20  1  0  0  0  0
 19 21  1  0  0  0  0
 19 37  1  0  0  0  0
 20 22  2  0  0  0  0
 20 38  1  0  0  0  0
 21 23  2  0  0  0  0
 21 39  1  0  0  0  0
 22 23  1  0  0  0  0
 22 40  1  0  0  0  0
 23 41  1  0  0  0  0
M  END
> <PUBCHEM_COMPOUND_CID>
118608805

> <PUBCHEM_COMPOUND_CANONICALIZED>
1

> <PUBCHEM_CACTVS_COMPLEXITY>
430

> <PUBCHEM_CACTVS_HBOND_ACCEPTOR>
5

> <PUBCHEM_CACTVS_HBOND_DONOR>
1

> <PUBCHEM_CACTVS_ROTATABLE_BOND>
6

> <PUBCHEM_CACTVS_SUBSKEYS>
AAADceB7OAAAAAAAAAAAAAAAAABgAWAAAAAwAAAAAAAAAAABwAAAHgAUAAAADSzhngYyjJLQBACpA6XyWgCCAAAmIgAomKG+bNoIZjqAlZOWMYhm1hmIyce/yKCOAAAAAAAAAAAAAAAAAAAAAAAAAAAAAA==

> <PUBCHEM_IUPAC_OPENEYE_NAME>
ethyl 3-[(5-phenylisoxazole-3-carbonyl)amino]cyclobutanecarboxylate

> <PUBCHEM_IUPAC_CAS_NAME>
3-[[oxo-(5-phenyl-3-isoxazolyl)methyl]amino]-1-cyclobutanecarboxylic acid ethyl ester

> <PUBCHEM_IUPAC_NAME_MARKUP>
ethyl 3-[(5-phenyl-1,2-oxazole-3-carbonyl)amino]cyclobutane-1-carboxylate

> <PUBCHEM_IUPAC_NAME>
ethyl 3-[(5-phenyl-1,2-oxazole-3-carbonyl)amino]cyclobutane-1-carboxylate

> <PUBCHEM_IUPAC_SYSTEMATIC_NAME>
ethyl 3-[(5-phenyl-1,2-oxazol-3-yl)carbonylamino]cyclobutane-1-carboxylate

> <PUBCHEM_IUPAC_TRADITIONAL_NAME>
3-[(5-phenylisoxazole-3-carbonyl)amino]cyclobutanecarboxylic acid ethyl ester

> <PUBCHEM_IUPAC_INCHI>
InChI=1S/C17H18N2O4/c1-2-22-17(21)12-8-13(9-12)18-16(20)14-10-15(23-19-14)11-6-4-3-5-7-11/h3-7,10,12-13H,2,8-9H2,1H3,(H,18,20)

> <PUBCHEM_IUPAC_INCHIKEY>
UNLYVMHTBMSLLH-UHFFFAOYSA-N

> <PUBCHEM_XLOGP3_AA>
2.4

> <PUBCHEM_EXACT_MASS>
314.126657

> <PUBCHEM_MOLECULAR_FORMULA>
C17H18N2O4

> <PUBCHEM_MOLECULAR_WEIGHT>
314.34

> <PUBCHEM_OPENEYE_CAN_SMILES>
CCOC(=O)C1CC(C1)NC(=O)C2=NOC(=C2)C3=CC=CC=C3

> <PUBCHEM_OPENEYE_ISO_SMILES>
CCOC(=O)C1CC(C1)NC(=O)C2=NOC(=C2)C3=CC=CC=C3

> <PUBCHEM_CACTVS_TPSA>
81.4

> <PUBCHEM_MONOISOTOPIC_WEIGHT>
314.126657

> <PUBCHEM_TOTAL_CHARGE>
0

> <PUBCHEM_HEAVY_ATOM_COUNT>
23

> <PUBCHEM_ATOM_DEF_STEREO_COUNT>
0

> <PUBCHEM_ATOM_UDEF_STEREO_COUNT>
0

> <PUBCHEM_BOND_DEF_STEREO_COUNT>
0

> <PUBCHEM_BOND_UDEF_STEREO_COUNT>
0

> <PUBCHEM_ISOTOPIC_ATOM_COUNT>
0

> <PUBCHEM_COMPONENT_COUNT>
1

> <PUBCHEM_CACTVS_TAUTO_COUNT>
-1

> <PUBCHEM_COORDINATE_TYPE>
1
5
255

> <PUBCHEM_BONDANNOTATIONS>
13  15  8
15  17  8
18  19  8
18  20  8
19  21  8
20  22  8
21  23  8
22  23  8
4  17  8
4  6  8
6  13  8

$$$$
118673114
  -OEChem-02212016592D

 82 85  0     1  0  0  0  0  0999 V2000
   12.9440    5.4441    0.0000 O   0  0  0  0  0  0  0  0  0  0  0  0
    5.3903   -3.3306    0.0000 O   0  0  0  0  0  0  0  0  0  0  0  0
   11.1645    2.3508    0.0000 O   0  0  0  0  0  0  0  0  0  0  0  0
    7.6050   -0.4855    0.0000 O   0  0  0  0  0  0  0  0  0  0  0  0
    6.9726   -4.0351    0.0000 O   0  0  0  0  0  0  0  0  0  0  0  0
   11.1764   -0.9809    0.0000 O   0  0  0  0  0  0  0  0  0  0  0  0
   12.9440    3.4441    0.0000 N   0  0  0  0  0  0  0  0  0  0  0  0
    7.7861   -2.2080    0.0000 N   0  0  0  0  0  0  0  0  0  0  0  0
    9.5941   -0.2764    0.0000 N   0  0  0  0  0  0  0  0  0  0  0  0
   10.4953    1.6077    0.0000 N   0  0  0  0  0  0  0  0  0  0  0  0
    6.2038   -1.5035    0.0000 C   0  0  0  0  0  0  0  0  0  0  0  0
    6.7916   -2.3126    0.0000 C   0  0  1  0  0  0  0  0  0  0  0  0
    5.2092   -1.6081    0.0000 C   0  0  0  0  0  0  0  0  0  0  0  0
    9.1873   -1.1900    0.0000 C   0  0  1  0  0  0  0  0  0  0  0  0
    9.7751   -1.9990    0.0000 C   0  0  0  0  0  0  0  0  0  0  0  0
   13.8101    3.9441    0.0000 C   0  0  0  0  0  0  0  0  0  0  0  0
   12.0780    3.9441    0.0000 C   0  0  0  0  0  0  0  0  0  0  0  0
    8.1928   -1.2945    0.0000 C   0  0  0  0  0  0  0  0  0  0  0  0
   12.9440    2.4441    0.0000 C   0  0  0  0  0  0  0  0  0  0  0  0
    9.3684   -2.9125    0.0000 C   0  0  0  0  0  0  0  0  0  0  0  0
    4.6215   -0.7991    0.0000 C   0  0  0  0  0  0  0  0  0  0  0  0
    4.8025   -2.5216    0.0000 C   0  0  0  0  0  0  0  0  0  0  0  0
   13.8101    4.9441    0.0000 C   0  0  0  0  0  0  0  0  0  0  0  0
   12.0780    4.9441    0.0000 C   0  0  0  0  0  0  0  0  0  0  0  0
    6.3848   -3.2261    0.0000 C   0  0  0  0  0  0  0  0  0  0  0  0
   12.0780    1.9441    0.0000 C   0  0  0  0  0  0  0  0  0  0  0  0
    9.9562   -3.7215    0.0000 C   0  0  0  0  0  0  0  0  0  0  0  0
   10.5886   -0.1719    0.0000 C   0  0  0  0  0  0  0  0  0  0  0  0
   10.9953    0.7417    0.0000 C   0  0  0  0  0  0  0  0  0  0  0  0
   11.9735    0.9496    0.0000 C   0  0  0  0  0  0  0  0  0  0  0  0
    9.5494   -4.6351    0.0000 C   0  0  0  0  0  0  0  0  0  0  0  0
   10.9507   -3.6170    0.0000 C   0  0  0  0  0  0  0  0  0  0  0  0
    4.9836   -4.2442    0.0000 C   0  0  0  0  0  0  0  0  0  0  0  0
   10.1372   -5.4441    0.0000 C   0  0  0  0  0  0  0  0  0  0  0  0
   11.5385   -4.4260    0.0000 C   0  0  0  0  0  0  0  0  0  0  0  0
    3.9890   -4.3487    0.0000 C   0  0  0  0  0  0  0  0  0  0  0  0
   11.1317   -5.3396    0.0000 C   0  0  0  0  0  0  0  0  0  0  0  0
    3.4013   -3.5397    0.0000 C   0  0  0  0  0  0  0  0  0  0  0  0
    3.5823   -5.2622    0.0000 C   0  0  0  0  0  0  0  0  0  0  0  0
    2.4067   -3.6442    0.0000 C   0  0  0  0  0  0  0  0  0  0  0  0
    2.5878   -5.3668    0.0000 C   0  0  0  0  0  0  0  0  0  0  0  0
    2.0000   -4.5578    0.0000 C   0  0  0  0  0  0  0  0  0  0  0  0
    6.7610   -1.2317    0.0000 H   0  0  0  0  0  0  0  0  0  0  0  0
    6.0329   -0.9076    0.0000 H   0  0  0  0  0  0  0  0  0  0  0  0
    7.0437   -1.7462    0.0000 H   0  0  0  0  0  0  0  0  0  0  0  0
    5.5737   -2.1097    0.0000 H   0  0  0  0  0  0  0  0  0  0  0  0
    9.8040   -1.1252    0.0000 H   0  0  0  0  0  0  0  0  0  0  0  0
   10.2891   -2.3457    0.0000 H   0  0  0  0  0  0  0  0  0  0  0  0
   10.2058   -1.5530    0.0000 H   0  0  0  0  0  0  0  0  0  0  0  0
    8.1505   -2.7096    0.0000 H   0  0  0  0  0  0  0  0  0  0  0  0
   14.0221    3.3615    0.0000 H   0  0  0  0  0  0  0  0  0  0  0  0
   14.4206    4.0518    0.0000 H   0  0  0  0  0  0  0  0  0  0  0  0
   11.4674    4.0518    0.0000 H   0  0  0  0  0  0  0  0  0  0  0  0
   11.8660    3.3615    0.0000 H   0  0  0  0  0  0  0  0  0  0  0  0
   13.1561    1.8615    0.0000 H   0  0  0  0  0  0  0  0  0  0  0  0
   13.5546    2.5518    0.0000 H   0  0  0  0  0  0  0  0  0  0  0  0
    8.8544   -2.5658    0.0000 H   0  0  0  0  0  0  0  0  0  0  0  0
    8.9377   -3.3585    0.0000 H   0  0  0  0  0  0  0  0  0  0  0  0
    5.1231   -0.4346    0.0000 H   0  0  0  0  0  0  0  0  0  0  0  0
    4.2570   -0.2975    0.0000 H   0  0  0  0  0  0  0  0  0  0  0  0
    4.1199   -1.1635    0.0000 H   0  0  0  0  0  0  0  0  0  0  0  0
    4.2361   -2.2694    0.0000 H   0  0  0  0  0  0  0  0  0  0  0  0
    4.5503   -3.0880    0.0000 H   0  0  0  0  0  0  0  0  0  0  0  0
    5.3689   -2.7738    0.0000 H   0  0  0  0  0  0  0  0  0  0  0  0
   14.4206    4.8364    0.0000 H   0  0  0  0  0  0  0  0  0  0  0  0
   14.0221    5.5267    0.0000 H   0  0  0  0  0  0  0  0  0  0  0  0
   11.8660    5.5267    0.0000 H   0  0  0  0  0  0  0  0  0  0  0  0
   11.4674    4.8364    0.0000 H   0  0  0  0  0  0  0  0  0  0  0  0
    9.2296    0.2252    0.0000 H   0  0  0  0  0  0  0  0  0  0  0  0
   12.4342    0.5347    0.0000 H   0  0  0  0  0  0  0  0  0  0  0  0
    8.9328   -4.6999    0.0000 H   0  0  0  0  0  0  0  0  0  0  0  0
   11.2029   -3.0506    0.0000 H   0  0  0  0  0  0  0  0  0  0  0  0
    4.9403   -4.8627    0.0000 H   0  0  0  0  0  0  0  0  0  0  0  0
    5.5851   -4.3942    0.0000 H   0  0  0  0  0  0  0  0  0  0  0  0
    9.8850   -6.0105    0.0000 H   0  0  0  0  0  0  0  0  0  0  0  0
   12.1551   -4.3612    0.0000 H   0  0  0  0  0  0  0  0  0  0  0  0
   11.4962   -5.8412    0.0000 H   0  0  0  0  0  0  0  0  0  0  0  0
    3.6534   -2.9733    0.0000 H   0  0  0  0  0  0  0  0  0  0  0  0
    3.9467   -5.7638    0.0000 H   0  0  0  0  0  0  0  0  0  0  0  0
    2.0423   -3.1426    0.0000 H   0  0  0  0  0  0  0  0  0  0  0  0
    2.3356   -5.9332    0.0000 H   0  0  0  0  0  0  0  0  0  0  0  0
    1.3834   -4.6226    0.0000 H   0  0  0  0  0  0  0  0  0  0  0  0
  1 23  1  0  0  0  0
  1 24  1  0  0  0  0
  2 25  1  0  0  0  0
  2 33  1  0  0  0  0
  3 10  1  0  0  0  0
  3 26  1  0  0  0  0
  4 18  2  0  0  0  0
  5 25  2  0  0  0  0
  6 28  2  0  0  0  0
  7 16  1  0  0  0  0
  7 17  1  0  0  0  0
  7 19  1  0  0  0  0
 12  8  1  6  0  0  0
  8 18  1  0  0  0  0
  8 50  1  0  0  0  0
 14  9  1  1  0  0  0
  9 28  1  0  0  0  0
  9 69  1  0  0  0  0
 10 29  2  0  0  0  0
 11 12  1  0  0  0  0
 11 13  1  0  0  0  0
 11 43  1  0  0  0  0
 11 44  1  0  0  0  0
 12 25  1  0  0  0  0
 12 45  1  0  0  0  0
 13 21  1  0  0  0  0
 13 22  1  0  0  0  0
 13 46  1  0  0  0  0
 14 15  1  0  0  0  0
 14 18  1  0  0  0  0
 14 47  1  0  0  0  0
 15 20  1  0  0  0  0
 15 48  1  0  0  0  0
 15 49  1  0  0  0  0
 16 23  1  0  0  0  0
 16 51  1  0  0  0  0
 16 52  1  0  0  0  0
 17 24  1  0  0  0  0
 17 53  1  0  0  0  0
 17 54  1  0  0  0  0
 19 26  1  0  0  0  0
 19 55  1  0  0  0  0
 19 56  1  0  0  0  0
 20 27  1  0  0  0  0
 20 57  1  0  0  0  0
 20 58  1  0  0  0  0
 21 59  1  0  0  0  0
 21 60  1  0  0  0  0
 21 61  1  0  0  0  0
 22 62  1  0  0  0  0
 22 63  1  0  0  0  0
 22 64  1  0  0  0  0
 23 65  1  0  0  0  0
 23 66  1  0  0  0  0
 24 67  1  0  0  0  0
 24 68  1  0  0  0  0
 26 30  2  0  0  0  0
 27 31  2  0  0  0  0
 27 32  1  0  0  0  0
 28 29  1  0  0  0  0
 29 30  1  0  0  0  0
 30 70  1  0  0  0  0
 31 34  1  0  0  0  0
 31 71  1  0  0  0  0
 32 35  2  0  0  0  0
 32 72  1  0  0  0  0
 33 36  1  0  0  0  0
 33 73  1  0  0  0  0
 33 74  1  0  0  0  0
 34 37  2  0  0  0  0
 34 75  1  0  0  0  0
 35 37  1  0  0  0  0
 35 76  1  0  0  0  0
 36 38  2  0  0  0  0
 36 39  1  0  0  0  0
 37 77  1  0  0  0  0
 38 40  1  0  0  0  0
 38 78  1  0  0  0  0
 39 41  2  0  0  0  0
 39 79  1  0  0  0  0
 40 42  2  0  0  0  0
 40 80  1  0  0  0  0
 41 42  1  0  0  0  0
 41 81  1  0  0  0  0
 42 82  1  0  0  0  0
M  END
> <PUBCHEM_COMPOUND_CID>
118673114

> <PUBCHEM_COMPOUND_CANONICALIZED>
1

> <PUBCHEM_CACTVS_COMPLEXITY>
839

> <PUBCHEM_CACTVS_HBOND_ACCEPTOR>
8

> <PUBCHEM_CACTVS_HBOND_DONOR>
2

> <PUBCHEM_CACTVS_ROTATABLE_BOND>
15

> <PUBCHEM_CACTVS_SUBSKEYS>
AAADcfB/uAAAAAAAAAAAAAAAAAAAAWAAAAA8YIAAAAAAAAAB0AAAHgAUAAAADSzhngYyjJPQBACpA6XyWgCCAAAmIgAomKG+bNoKZjqAtbuXMYhm1hmY6ce/yaCOAAAAAAAAAAAAAAAAAAAAAAAAAAAAAA==

> <PUBCHEM_IUPAC_OPENEYE_NAME>
benzyl (2S)-4-methyl-2-[[(2S)-2-[[5-(morpholinomethyl)isoxazole-3-carbonyl]amino]-4-phenyl-butanoyl]amino]pentanoate

> <PUBCHEM_IUPAC_CAS_NAME>
(2S)-4-methyl-2-[[(2S)-2-[[[5-(4-morpholinylmethyl)-3-isoxazolyl]-oxomethyl]amino]-1-oxo-4-phenylbutyl]amino]pentanoic acid (phenylmethyl) ester

> <PUBCHEM_IUPAC_NAME_MARKUP>
benzyl (2<I>S</I>)-4-methyl-2-[[(2<I>S</I>)-2-[[5-(morpholin-4-ylmethyl)-1,2-oxazole-3-carbonyl]amino]-4-phenylbutanoyl]amino]pentanoate

> <PUBCHEM_IUPAC_NAME>
benzyl (2S)-4-methyl-2-[[(2S)-2-[[5-(morpholin-4-ylmethyl)-1,2-oxazole-3-carbonyl]amino]-4-phenylbutanoyl]amino]pentanoate

> <PUBCHEM_IUPAC_SYSTEMATIC_NAME>
(phenylmethyl) (2S)-4-methyl-2-[[(2S)-2-[[5-(morpholin-4-ylmethyl)-1,2-oxazol-3-yl]carbonylamino]-4-phenyl-butanoyl]amino]pentanoate

> <PUBCHEM_IUPAC_TRADITIONAL_NAME>
(2S)-4-methyl-2-[[(2S)-2-[[5-(morpholinomethyl)isoxazole-3-carbonyl]amino]-4-phenyl-butanoyl]amino]valeric acid benzyl ester

> <PUBCHEM_IUPAC_INCHI>
InChI=1S/C32H40N4O6/c1-23(2)19-29(32(39)41-22-25-11-7-4-8-12-25)34-30(37)27(14-13-24-9-5-3-6-10-24)33-31(38)28-20-26(42-35-28)21-36-15-17-40-18-16-36/h3-12,20,23,27,29H,13-19,21-22H2,1-2H3,(H,33,38)(H,34,37)/t27-,29-/m0/s1

> <PUBCHEM_IUPAC_INCHIKEY>
AMFMPBIUUDJFDT-YTMVLYRLSA-N

> <PUBCHEM_XLOGP3_AA>
4.3

> <PUBCHEM_EXACT_MASS>
576.294785

> <PUBCHEM_MOLECULAR_FORMULA>
C32H40N4O6

> <PUBCHEM_MOLECULAR_WEIGHT>
576.7

> <PUBCHEM_OPENEYE_CAN_SMILES>
CC(C)CC(C(=O)OCC1=CC=CC=C1)NC(=O)C(CCC2=CC=CC=C2)NC(=O)C3=NOC(=C3)CN4CCOCC4

> <PUBCHEM_OPENEYE_ISO_SMILES>
CC(C)C[C@@H](C(=O)OCC1=CC=CC=C1)NC(=O)[C@H](CCC2=CC=CC=C2)NC(=O)C3=NOC(=C3)CN4CCOCC4

> <PUBCHEM_CACTVS_TPSA>
123

> <PUBCHEM_MONOISOTOPIC_WEIGHT>
576.294785

> <PUBCHEM_TOTAL_CHARGE>
0

> <PUBCHEM_HEAVY_ATOM_COUNT>
42

> <PUBCHEM_ATOM_DEF_STEREO_COUNT>
2

> <PUBCHEM_ATOM_UDEF_STEREO_COUNT>
0

> <PUBCHEM_BOND_DEF_STEREO_COUNT>
0

> <PUBCHEM_BOND_UDEF_STEREO_COUNT>
0

> <PUBCHEM_ISOTOPIC_ATOM_COUNT>
0

> <PUBCHEM_COMPONENT_COUNT>
1

> <PUBCHEM_CACTVS_TAUTO_COUNT>
-1

> <PUBCHEM_COORDINATE_TYPE>
1
5
255

> <PUBCHEM_BONDANNOTATIONS>
10  29  8
26  30  8
27  31  8
27  32  8
29  30  8
3  10  8
3  26  8
31  34  8
32  35  8
34  37  8
35  37  8
36  38  8
36  39  8
38  40  8
39  41  8
40  42  8
41  42  8
12  8  6
14  9  5

$$$$
118698632
  -OEChem-02212016592D

 41 42  0     1  0  0  0  0  0999 V2000
    3.7320   -1.1283    0.0000 O   0  0  0  0  0  0  0  0  0  0  0  0
    5.5116   -0.0351    0.0000 O   0  0  0  0  0  0  0  0  0  0  0  0
    8.8900    4.5238    0.0000 O   0  0  0  0  0  0  0  0  0  0  0  0
    5.4997    3.2967    0.0000 O   0  0  0  0  0  0  0  0  0  0  0  0
    9.0710    2.8012    0.0000 O   0  0  0  0  0  0  0  0  0  0  0  0
    7.0820    2.5922    0.0000 N   0  0  0  0  0  0  0  0  0  0  0  0
    6.1808    0.7081    0.0000 N   0  0  0  0  0  0  0  0  0  0  0  0
    7.4888    3.5057    0.0000 C   0  0  3  0  0  0  0  0  0  0  0  0
    4.5981    0.3717    0.0000 C   0  0  0  0  0  0  0  0  0  0  0  0
    3.7320   -0.1283    0.0000 C   0  0  0  0  0  0  0  0  0  0  0  0
    5.6808    1.5741    0.0000 C   0  0  0  0  0  0  0  0  0  0  0  0
    6.9010    4.3147    0.0000 C   0  0  0  0  0  0  0  0  0  0  0  0
    6.0875    2.4876    0.0000 C   0  0  0  0  0  0  0  0  0  0  0  0
    2.8660   -1.6283    0.0000 C   0  0  0  0  0  0  0  0  0  0  0  0
    4.7026    1.3662    0.0000 C   0  0  0  0  0  0  0  0  0  0  0  0
    2.8660   -2.6283    0.0000 C   0  0  0  0  0  0  0  0  0  0  0  0
    8.4833    3.6102    0.0000 C   0  0  0  0  0  0  0  0  0  0  0  0
    2.0000   -3.1283    0.0000 C   0  0  0  0  0  0  0  0  0  0  0  0
    3.7320   -3.1283    0.0000 C   0  0  0  0  0  0  0  0  0  0  0  0
    2.0000   -4.1283    0.0000 C   0  0  0  0  0  0  0  0  0  0  0  0
    3.7320   -4.1283    0.0000 C   0  0  0  0  0  0  0  0  0  0  0  0
    2.8660   -4.6283    0.0000 C   0  0  0  0  0  0  0  0  0  0  0  0
    9.8845    4.6283    0.0000 C   0  0  0  0  0  0  0  0  0  0  0  0
    7.8532    3.0041    0.0000 H   0  0  0  0  0  0  0  0  0  0  0  0
    7.4464    2.0906    0.0000 H   0  0  0  0  0  0  0  0  0  0  0  0
    3.5200    0.4543    0.0000 H   0  0  0  0  0  0  0  0  0  0  0  0
    3.1215   -0.2360    0.0000 H   0  0  0  0  0  0  0  0  0  0  0  0
    7.4026    4.6792    0.0000 H   0  0  0  0  0  0  0  0  0  0  0  0
    6.5365    4.8163    0.0000 H   0  0  0  0  0  0  0  0  0  0  0  0
    6.3994    3.9503    0.0000 H   0  0  0  0  0  0  0  0  0  0  0  0
    2.6540   -1.0457    0.0000 H   0  0  0  0  0  0  0  0  0  0  0  0
    2.2554   -1.7360    0.0000 H   0  0  0  0  0  0  0  0  0  0  0  0
    4.2419    1.7811    0.0000 H   0  0  0  0  0  0  0  0  0  0  0  0
    1.4631   -2.8183    0.0000 H   0  0  0  0  0  0  0  0  0  0  0  0
    4.2690   -2.8183    0.0000 H   0  0  0  0  0  0  0  0  0  0  0  0
    1.4631   -4.4383    0.0000 H   0  0  0  0  0  0  0  0  0  0  0  0
    4.2690   -4.4383    0.0000 H   0  0  0  0  0  0  0  0  0  0  0  0
    2.8660   -5.2483    0.0000 H   0  0  0  0  0  0  0  0  0  0  0  0
    9.9493    4.0117    0.0000 H   0  0  0  0  0  0  0  0  0  0  0  0
   10.5011    4.6931    0.0000 H   0  0  0  0  0  0  0  0  0  0  0  0
    9.8197    5.2449    0.0000 H   0  0  0  0  0  0  0  0  0  0  0  0
  1 10  1  0  0  0  0
  1 14  1  0  0  0  0
  2  7  1  0  0  0  0
  2  9  1  0  0  0  0
  3 17  1  0  0  0  0
  3 23  1  0  0  0  0
  4 13  2  0  0  0  0
  5 17  2  0  0  0  0
  6  8  1  0  0  0  0
  6 13  1  0  0  0  0
  6 25  1  0  0  0  0
  7 11  2  0  0  0  0
  8 12  1  0  0  0  0
  8 17  1  0  0  0  0
  8 24  1  0  0  0  0
  9 10  1  0  0  0  0
  9 15  2  0  0  0  0
 10 26  1  0  0  0  0
 10 27  1  0  0  0  0
 11 13  1  0  0  0  0
 11 15  1  0  0  0  0
 12 28  1  0  0  0  0
 12 29  1  0  0  0  0
 12 30  1  0  0  0  0
 14 16  1  0  0  0  0
 14 31  1  0  0  0  0
 14 32  1  0  0  0  0
 15 33  1  0  0  0  0
 16 18  2  0  0  0  0
 16 19  1  0  0  0  0
 18 20  1  0  0  0  0
 18 34  1  0  0  0  0
 19 21  2  0  0  0  0
 19 35  1  0  0  0  0
 20 22  2  0  0  0  0
 20 36  1  0  0  0  0
 21 22  1  0  0  0  0
 21 37  1  0  0  0  0
 22 38  1  0  0  0  0
 23 39  1  0  0  0  0
 23 40  1  0  0  0  0
 23 41  1  0  0  0  0
M  END
> <PUBCHEM_COMPOUND_CID>
118698632

> <PUBCHEM_COMPOUND_CANONICALIZED>
1

> <PUBCHEM_CACTVS_COMPLEXITY>
398

> <PUBCHEM_CACTVS_HBOND_ACCEPTOR>
6

> <PUBCHEM_CACTVS_HBOND_DONOR>
1

> <PUBCHEM_CACTVS_ROTATABLE_BOND>
8

> <PUBCHEM_CACTVS_SUBSKEYS>
AAADceB7OAAAAAAAAAAAAAAAAAAAAWAAAAAwAAAAAAAAAAABwAAAHgAUAAAADCzhngYyjJLQBACpA6XyWgKCAAAmIgAomKH+bNoLZjqAtb+XMYhm1hma6ce/1CIOAAAAAAAAAAAAAAAAAAAAAAAAAAAAAA==

> <PUBCHEM_IUPAC_OPENEYE_NAME>
methyl 2-[[5-(benzyloxymethyl)isoxazole-3-carbonyl]amino]propanoate

> <PUBCHEM_IUPAC_CAS_NAME>
2-[[oxo-[5-(phenylmethoxymethyl)-3-isoxazolyl]methyl]amino]propanoic acid methyl ester

> <PUBCHEM_IUPAC_NAME_MARKUP>
methyl 2-[[5-(phenylmethoxymethyl)-1,2-oxazole-3-carbonyl]amino]propanoate

> <PUBCHEM_IUPAC_NAME>
methyl 2-[[5-(phenylmethoxymethyl)-1,2-oxazole-3-carbonyl]amino]propanoate

> <PUBCHEM_IUPAC_SYSTEMATIC_NAME>
methyl 2-[[5-(phenylmethoxymethyl)-1,2-oxazol-3-yl]carbonylamino]propanoate

> <PUBCHEM_IUPAC_TRADITIONAL_NAME>
2-[[5-(benzoxymethyl)isoxazole-3-carbonyl]amino]propionic acid methyl ester

> <PUBCHEM_IUPAC_INCHI>
InChI=1S/C16H18N2O5/c1-11(16(20)21-2)17-15(19)14-8-13(23-18-14)10-22-9-12-6-4-3-5-7-12/h3-8,11H,9-10H2,1-2H3,(H,17,19)

> <PUBCHEM_IUPAC_INCHIKEY>
REWBPWLZGCGRRI-UHFFFAOYSA-N

> <PUBCHEM_XLOGP3_AA>
1.5

> <PUBCHEM_EXACT_MASS>
318.121572

> <PUBCHEM_MOLECULAR_FORMULA>
C16H18N2O5

> <PUBCHEM_MOLECULAR_WEIGHT>
318.32

> <PUBCHEM_OPENEYE_CAN_SMILES>
CC(C(=O)OC)NC(=O)C1=NOC(=C1)COCC2=CC=CC=C2

> <PUBCHEM_OPENEYE_ISO_SMILES>
CC(C(=O)OC)NC(=O)C1=NOC(=C1)COCC2=CC=CC=C2

> <PUBCHEM_CACTVS_TPSA>
90.7

> <PUBCHEM_MONOISOTOPIC_WEIGHT>
318.121572

> <PUBCHEM_TOTAL_CHARGE>
0

> <PUBCHEM_HEAVY_ATOM_COUNT>
23

> <PUBCHEM_ATOM_DEF_STEREO_COUNT>
0

> <PUBCHEM_ATOM_UDEF_STEREO_COUNT>
1

> <PUBCHEM_BOND_DEF_STEREO_COUNT>
0

> <PUBCHEM_BOND_UDEF_STEREO_COUNT>
0

> <PUBCHEM_ISOTOPIC_ATOM_COUNT>
0

> <PUBCHEM_COMPONENT_COUNT>
1

> <PUBCHEM_CACTVS_TAUTO_COUNT>
-1

> <PUBCHEM_COORDINATE_TYPE>
1
5
255

> <PUBCHEM_BONDANNOTATIONS>
11  15  8
16  18  8
16  19  8
18  20  8
19  21  8
2  7  8
2  9  8
20  22  8
21  22  8
7  11  8
8  12  3
9  15  8

$$$$
118698696
  -OEChem-02212016592D

 41 42  0     0  0  0  0  0  0999 V2000
    3.7320   -1.5851    0.0000 O   0  0  0  0  0  0  0  0  0  0  0  0
    5.5116   -0.4918    0.0000 O   0  0  0  0  0  0  0  0  0  0  0  0
    9.8845    4.1716    0.0000 O   0  0  0  0  0  0  0  0  0  0  0  0
    5.4997    2.8399    0.0000 O   0  0  0  0  0  0  0  0  0  0  0  0
    8.3022    4.8760    0.0000 O   0  0  0  0  0  0  0  0  0  0  0  0
    7.0820    2.1354    0.0000 N   0  0  0  0  0  0  0  0  0  0  0  0
    6.1808    0.2513    0.0000 N   0  0  0  0  0  0  0  0  0  0  0  0
    7.4888    3.0490    0.0000 C   0  0  0  0  0  0  0  0  0  0  0  0
    3.7320   -0.5851    0.0000 C   0  0  0  0  0  0  0  0  0  0  0  0
    4.5981   -0.0851    0.0000 C   0  0  0  0  0  0  0  0  0  0  0  0
    2.8660   -2.0851    0.0000 C   0  0  0  0  0  0  0  0  0  0  0  0
    8.4833    3.1535    0.0000 C   0  0  0  0  0  0  0  0  0  0  0  0
    5.6808    1.1173    0.0000 C   0  0  0  0  0  0  0  0  0  0  0  0
    2.8660   -3.0851    0.0000 C   0  0  0  0  0  0  0  0  0  0  0  0
    4.7026    0.9094    0.0000 C   0  0  0  0  0  0  0  0  0  0  0  0
    6.0875    2.0309    0.0000 C   0  0  0  0  0  0  0  0  0  0  0  0
    2.0000   -3.5851    0.0000 C   0  0  0  0  0  0  0  0  0  0  0  0
    3.7320   -3.5851    0.0000 C   0  0  0  0  0  0  0  0  0  0  0  0
    8.8900    4.0670    0.0000 C   0  0  0  0  0  0  0  0  0  0  0  0
    2.0000   -4.5851    0.0000 C   0  0  0  0  0  0  0  0  0  0  0  0
    3.7320   -4.5851    0.0000 C   0  0  0  0  0  0  0  0  0  0  0  0
    2.8660   -5.0851    0.0000 C   0  0  0  0  0  0  0  0  0  0  0  0
   10.2913    5.0851    0.0000 C   0  0  0  0  0  0  0  0  0  0  0  0
    7.5320    3.6674    0.0000 H   0  0  0  0  0  0  0  0  0  0  0  0
    6.8872    3.1989    0.0000 H   0  0  0  0  0  0  0  0  0  0  0  0
    3.5200   -0.0025    0.0000 H   0  0  0  0  0  0  0  0  0  0  0  0
    3.1215   -0.6928    0.0000 H   0  0  0  0  0  0  0  0  0  0  0  0
    2.6540   -1.5025    0.0000 H   0  0  0  0  0  0  0  0  0  0  0  0
    2.2554   -2.1928    0.0000 H   0  0  0  0  0  0  0  0  0  0  0  0
    8.4400    2.5350    0.0000 H   0  0  0  0  0  0  0  0  0  0  0  0
    9.0848    3.0035    0.0000 H   0  0  0  0  0  0  0  0  0  0  0  0
    4.2419    1.3243    0.0000 H   0  0  0  0  0  0  0  0  0  0  0  0
    7.4464    1.6338    0.0000 H   0  0  0  0  0  0  0  0  0  0  0  0
    1.4631   -3.2751    0.0000 H   0  0  0  0  0  0  0  0  0  0  0  0
    4.2690   -3.2751    0.0000 H   0  0  0  0  0  0  0  0  0  0  0  0
    1.4631   -4.8951    0.0000 H   0  0  0  0  0  0  0  0  0  0  0  0
    4.2690   -4.8951    0.0000 H   0  0  0  0  0  0  0  0  0  0  0  0
    2.8660   -5.7051    0.0000 H   0  0  0  0  0  0  0  0  0  0  0  0
   10.8577    4.8329    0.0000 H   0  0  0  0  0  0  0  0  0  0  0  0
   10.5434    5.6515    0.0000 H   0  0  0  0  0  0  0  0  0  0  0  0
    9.7249    5.3373    0.0000 H   0  0  0  0  0  0  0  0  0  0  0  0
  1  9  1  0  0  0  0
  1 11  1  0  0  0  0
  2  7  1  0  0  0  0
  2 10  1  0  0  0  0
  3 19  1  0  0  0  0
  3 23  1  0  0  0  0
  4 16  2  0  0  0  0
  5 19  2  0  0  0  0
  6  8  1  0  0  0  0
  6 16  1  0  0  0  0
  6 33  1  0  0  0  0
  7 13  2  0  0  0  0
  8 12  1  0  0  0  0
  8 24  1  0  0  0  0
  8 25  1  0  0  0  0
  9 10  1  0  0  0  0
  9 26  1  0  0  0  0
  9 27  1  0  0  0  0
 10 15  2  0  0  0  0
 11 14  1  0  0  0  0
 11 28  1  0  0  0  0
 11 29  1  0  0  0  0
 12 19  1  0  0  0  0
 12 30  1  0  0  0  0
 12 31  1  0  0  0  0
 13 15  1  0  0  0  0
 13 16  1  0  0  0  0
 14 17  2  0  0  0  0
 14 18  1  0  0  0  0
 15 32  1  0  0  0  0
 17 20  1  0  0  0  0
 17 34  1  0  0  0  0
 18 21  2  0  0  0  0
 18 35  1  0  0  0  0
 20 22  2  0  0  0  0
 20 36  1  0  0  0  0
 21 22  1  0  0  0  0
 21 37  1  0  0  0  0
 22 38  1  0  0  0  0
 23 39  1  0  0  0  0
 23 40  1  0  0  0  0
 23 41  1  0  0  0  0
M  END
> <PUBCHEM_COMPOUND_CID>
118698696

> <PUBCHEM_COMPOUND_CANONICALIZED>
1

> <PUBCHEM_CACTVS_COMPLEXITY>
385

> <PUBCHEM_CACTVS_HBOND_ACCEPTOR>
6

> <PUBCHEM_CACTVS_HBOND_DONOR>
1

> <PUBCHEM_CACTVS_ROTATABLE_BOND>
9

> <PUBCHEM_CACTVS_SUBSKEYS>
AAADceB7OAAAAAAAAAAAAAAAAAAAAWAAAAAwAAAAAAAAAAABwAAAHgAUAAAADAzhngYyjJLQBACpA6XyWgKCAAAmIgAomKH+bNoJZjqAtZ+WMYhm1hmK6ce/1CIOAAAAAAAAAAAAAAAAAAAAAAAAAAAAAA==

> <PUBCHEM_IUPAC_OPENEYE_NAME>
methyl 3-[[5-(benzyloxymethyl)isoxazole-3-carbonyl]amino]propanoate

> <PUBCHEM_IUPAC_CAS_NAME>
3-[[oxo-[5-(phenylmethoxymethyl)-3-isoxazolyl]methyl]amino]propanoic acid methyl ester

> <PUBCHEM_IUPAC_NAME_MARKUP>
methyl 3-[[5-(phenylmethoxymethyl)-1,2-oxazole-3-carbonyl]amino]propanoate

> <PUBCHEM_IUPAC_NAME>
methyl 3-[[5-(phenylmethoxymethyl)-1,2-oxazole-3-carbonyl]amino]propanoate

> <PUBCHEM_IUPAC_SYSTEMATIC_NAME>
methyl 3-[[5-(phenylmethoxymethyl)-1,2-oxazol-3-yl]carbonylamino]propanoate

> <PUBCHEM_IUPAC_TRADITIONAL_NAME>
3-[[5-(benzoxymethyl)isoxazole-3-carbonyl]amino]propionic acid methyl ester

> <PUBCHEM_IUPAC_INCHI>
InChI=1S/C16H18N2O5/c1-21-15(19)7-8-17-16(20)14-9-13(23-18-14)11-22-10-12-5-3-2-4-6-12/h2-6,9H,7-8,10-11H2,1H3,(H,17,20)

> <PUBCHEM_IUPAC_INCHIKEY>
NWWPZNFGVWOFSH-UHFFFAOYSA-N

> <PUBCHEM_XLOGP3_AA>
1

> <PUBCHEM_EXACT_MASS>
318.121572

> <PUBCHEM_MOLECULAR_FORMULA>
C16H18N2O5

> <PUBCHEM_MOLECULAR_WEIGHT>
318.32

> <PUBCHEM_OPENEYE_CAN_SMILES>
COC(=O)CCNC(=O)C1=NOC(=C1)COCC2=CC=CC=C2

> <PUBCHEM_OPENEYE_ISO_SMILES>
COC(=O)CCNC(=O)C1=NOC(=C1)COCC2=CC=CC=C2

> <PUBCHEM_CACTVS_TPSA>
90.7

> <PUBCHEM_MONOISOTOPIC_WEIGHT>
318.121572

> <PUBCHEM_TOTAL_CHARGE>
0

> <PUBCHEM_HEAVY_ATOM_COUNT>
23

> <PUBCHEM_ATOM_DEF_STEREO_COUNT>
0

> <PUBCHEM_ATOM_UDEF_STEREO_COUNT>
0

> <PUBCHEM_BOND_DEF_STEREO_COUNT>
0

> <PUBCHEM_BOND_UDEF_STEREO_COUNT>
0

> <PUBCHEM_ISOTOPIC_ATOM_COUNT>
0

> <PUBCHEM_COMPONENT_COUNT>
1

> <PUBCHEM_CACTVS_TAUTO_COUNT>
-1

> <PUBCHEM_COORDINATE_TYPE>
1
5
255

> <PUBCHEM_BONDANNOTATIONS>
10  15  8
13  15  8
14  17  8
14  18  8
17  20  8
18  21  8
2  10  8
2  7  8
20  22  8
21  22  8
7  13  8

$$$$
118698708
  -OEChem-02212016592D

 50 52  0     1  0  0  0  0  0999 V2000
   10.4604    5.8897    0.0000 O   0  0  0  0  0  0  0  0  0  0  0  0
    9.0710    1.5399    0.0000 O   0  0  0  0  0  0  0  0  0  0  0  0
    3.7320   -2.3897    0.0000 O   0  0  0  0  0  0  0  0  0  0  0  0
    5.5116   -1.2964    0.0000 O   0  0  0  0  0  0  0  0  0  0  0  0
    5.4997    2.0353    0.0000 O   0  0  0  0  0  0  0  0  0  0  0  0
    8.8900    3.2624    0.0000 N   0  0  0  0  0  0  0  0  0  0  0  0
    7.0820    1.3308    0.0000 N   0  0  0  0  0  0  0  0  0  0  0  0
    6.1808   -0.5533    0.0000 N   0  0  0  0  0  0  0  0  0  0  0  0
   10.2913    4.2805    0.0000 C   0  0  3  0  0  0  0  0  0  0  0  0
   11.2694    4.4884    0.0000 C   0  0  0  0  0  0  0  0  0  0  0  0
    9.7913    5.1465    0.0000 C   0  0  0  0  0  0  0  0  0  0  0  0
    9.8845    3.3670    0.0000 C   0  0  0  0  0  0  0  0  0  0  0  0
   11.3739    5.4830    0.0000 C   0  0  0  0  0  0  0  0  0  0  0  0
    8.4833    2.3489    0.0000 C   0  0  0  0  0  0  0  0  0  0  0  0
    7.4888    2.2444    0.0000 C   0  0  0  0  0  0  0  0  0  0  0  0
    6.0875    1.2263    0.0000 C   0  0  0  0  0  0  0  0  0  0  0  0
    5.6808    0.3127    0.0000 C   0  0  0  0  0  0  0  0  0  0  0  0
    4.5981   -0.8897    0.0000 C   0  0  0  0  0  0  0  0  0  0  0  0
    3.7320   -1.3897    0.0000 C   0  0  0  0  0  0  0  0  0  0  0  0
    4.7026    0.1048    0.0000 C   0  0  0  0  0  0  0  0  0  0  0  0
    2.8660   -2.8897    0.0000 C   0  0  0  0  0  0  0  0  0  0  0  0
    2.8660   -3.8897    0.0000 C   0  0  0  0  0  0  0  0  0  0  0  0
    2.0000   -4.3897    0.0000 C   0  0  0  0  0  0  0  0  0  0  0  0
    3.7320   -4.3897    0.0000 C   0  0  0  0  0  0  0  0  0  0  0  0
    2.0000   -5.3897    0.0000 C   0  0  0  0  0  0  0  0  0  0  0  0
    3.7320   -5.3897    0.0000 C   0  0  0  0  0  0  0  0  0  0  0  0
    2.8660   -5.8897    0.0000 C   0  0  0  0  0  0  0  0  0  0  0  0
    9.6721    4.2481    0.0000 H   0  0  0  0  0  0  0  0  0  0  0  0
   11.3342    3.8718    0.0000 H   0  0  0  0  0  0  0  0  0  0  0  0
   11.8894    4.4884    0.0000 H   0  0  0  0  0  0  0  0  0  0  0  0
    9.3764    5.6073    0.0000 H   0  0  0  0  0  0  0  0  0  0  0  0
    9.2897    4.7821    0.0000 H   0  0  0  0  0  0  0  0  0  0  0  0
    9.8413    2.7485    0.0000 H   0  0  0  0  0  0  0  0  0  0  0  0
   10.4861    3.2170    0.0000 H   0  0  0  0  0  0  0  0  0  0  0  0
   11.9804    5.3540    0.0000 H   0  0  0  0  0  0  0  0  0  0  0  0
   11.5655    6.0726    0.0000 H   0  0  0  0  0  0  0  0  0  0  0  0
    8.5256    3.7640    0.0000 H   0  0  0  0  0  0  0  0  0  0  0  0
    7.5320    2.8629    0.0000 H   0  0  0  0  0  0  0  0  0  0  0  0
    6.8872    2.3944    0.0000 H   0  0  0  0  0  0  0  0  0  0  0  0
    7.4464    0.8292    0.0000 H   0  0  0  0  0  0  0  0  0  0  0  0
    3.5200   -0.8071    0.0000 H   0  0  0  0  0  0  0  0  0  0  0  0
    3.1215   -1.4974    0.0000 H   0  0  0  0  0  0  0  0  0  0  0  0
    4.2419    0.5197    0.0000 H   0  0  0  0  0  0  0  0  0  0  0  0
    2.6540   -2.3071    0.0000 H   0  0  0  0  0  0  0  0  0  0  0  0
    2.2554   -2.9974    0.0000 H   0  0  0  0  0  0  0  0  0  0  0  0
    1.4631   -4.0797    0.0000 H   0  0  0  0  0  0  0  0  0  0  0  0
    4.2690   -4.0797    0.0000 H   0  0  0  0  0  0  0  0  0  0  0  0
    1.4631   -5.6997    0.0000 H   0  0  0  0  0  0  0  0  0  0  0  0
    4.2690   -5.6997    0.0000 H   0  0  0  0  0  0  0  0  0  0  0  0
    2.8660   -6.5097    0.0000 H   0  0  0  0  0  0  0  0  0  0  0  0
  1 11  1  0  0  0  0
  1 13  1  0  0  0  0
  2 14  2  0  0  0  0
  3 19  1  0  0  0  0
  3 21  1  0  0  0  0
  4  8  1  0  0  0  0
  4 18  1  0  0  0  0
  5 16  2  0  0  0  0
  6 12  1  0  0  0  0
  6 14  1  0  0  0  0
  6 37  1  0  0  0  0
  7 15  1  0  0  0  0
  7 16  1  0  0  0  0
  7 40  1  0  0  0  0
  8 17  2  0  0  0  0
  9 10  1  0  0  0  0
  9 11  1  0  0  0  0
  9 12  1  0  0  0  0
  9 28  1  0  0  0  0
 10 13  1  0  0  0  0
 10 29  1  0  0  0  0
 10 30  1  0  0  0  0
 11 31  1  0  0  0  0
 11 32  1  0  0  0  0
 12 33  1  0  0  0  0
 12 34  1  0  0  0  0
 13 35  1  0  0  0  0
 13 36  1  0  0  0  0
 14 15  1  0  0  0  0
 15 38  1  0  0  0  0
 15 39  1  0  0  0  0
 16 17  1  0  0  0  0
 17 20  1  0  0  0  0
 18 19  1  0  0  0  0
 18 20  2  0  0  0  0
 19 41  1  0  0  0  0
 19 42  1  0  0  0  0
 20 43  1  0  0  0  0
 21 22  1  0  0  0  0
 21 44  1  0  0  0  0
 21 45  1  0  0  0  0
 22 23  2  0  0  0  0
 22 24  1  0  0  0  0
 23 25  1  0  0  0  0
 23 46  1  0  0  0  0
 24 26  2  0  0  0  0
 24 47  1  0  0  0  0
 25 27  2  0  0  0  0
 25 48  1  0  0  0  0
 26 27  1  0  0  0  0
 26 49  1  0  0  0  0
 27 50  1  0  0  0  0
M  END
> <PUBCHEM_COMPOUND_CID>
118698708

> <PUBCHEM_COMPOUND_CANONICALIZED>
1

> <PUBCHEM_CACTVS_COMPLEXITY>
484

> <PUBCHEM_CACTVS_HBOND_ACCEPTOR>
6

> <PUBCHEM_CACTVS_HBOND_DONOR>
2

> <PUBCHEM_CACTVS_ROTATABLE_BOND>
9

> <PUBCHEM_CACTVS_SUBSKEYS>
AAADceB7OAAAAAAAAAAAAAAAAAAAAWJAAAAwAAAAAAAAAAABwAAAHgAUAAAADQzhngYwhJLQBACpA6VyUgKCAAAmIgAomKH+bNoJZjqAtb+WMYhm1hmK6ce/1CIOAAAAAAAAAAAAAAAAAAAAAAAAAAAAAA==

> <PUBCHEM_IUPAC_OPENEYE_NAME>
5-(benzyloxymethyl)-N-[2-oxo-2-(tetrahydrofuran-3-ylmethylamino)ethyl]isoxazole-3-carboxamide

> <PUBCHEM_IUPAC_CAS_NAME>
N-[2-oxo-2-(3-oxolanylmethylamino)ethyl]-5-(phenylmethoxymethyl)-3-isoxazolecarboxamide

> <PUBCHEM_IUPAC_NAME_MARKUP>
<I>N</I>-[2-oxo-2-(oxolan-3-ylmethylamino)ethyl]-5-(phenylmethoxymethyl)-1,2-oxazole-3-carboxamide

> <PUBCHEM_IUPAC_NAME>
N-[2-oxo-2-(oxolan-3-ylmethylamino)ethyl]-5-(phenylmethoxymethyl)-1,2-oxazole-3-carboxamide

> <PUBCHEM_IUPAC_SYSTEMATIC_NAME>
N-[2-oxidanylidene-2-(oxolan-3-ylmethylamino)ethyl]-5-(phenylmethoxymethyl)-1,2-oxazole-3-carboxamide

> <PUBCHEM_IUPAC_TRADITIONAL_NAME>
5-(benzoxymethyl)-N-[2-keto-2-(tetrahydrofuran-3-ylmethylamino)ethyl]isoxazole-3-carboxamide

> <PUBCHEM_IUPAC_INCHI>
InChI=1S/C19H23N3O5/c23-18(20-9-15-6-7-25-12-15)10-21-19(24)17-8-16(27-22-17)13-26-11-14-4-2-1-3-5-14/h1-5,8,15H,6-7,9-13H2,(H,20,23)(H,21,24)

> <PUBCHEM_IUPAC_INCHIKEY>
RAADAVGIGQNOCC-UHFFFAOYSA-N

> <PUBCHEM_XLOGP3_AA>
0.7

> <PUBCHEM_EXACT_MASS>
373.163771

> <PUBCHEM_MOLECULAR_FORMULA>
C19H23N3O5

> <PUBCHEM_MOLECULAR_WEIGHT>
373.4

> <PUBCHEM_OPENEYE_CAN_SMILES>
C1COCC1CNC(=O)CNC(=O)C2=NOC(=C2)COCC3=CC=CC=C3

> <PUBCHEM_OPENEYE_ISO_SMILES>
C1COCC1CNC(=O)CNC(=O)C2=NOC(=C2)COCC3=CC=CC=C3

> <PUBCHEM_CACTVS_TPSA>
103

> <PUBCHEM_MONOISOTOPIC_WEIGHT>
373.163771

> <PUBCHEM_TOTAL_CHARGE>
0

> <PUBCHEM_HEAVY_ATOM_COUNT>
27

> <PUBCHEM_ATOM_DEF_STEREO_COUNT>
0

> <PUBCHEM_ATOM_UDEF_STEREO_COUNT>
1

> <PUBCHEM_BOND_DEF_STEREO_COUNT>
0

> <PUBCHEM_BOND_UDEF_STEREO_COUNT>
0

> <PUBCHEM_ISOTOPIC_ATOM_COUNT>
0

> <PUBCHEM_COMPONENT_COUNT>
1

> <PUBCHEM_CACTVS_TAUTO_COUNT>
-1

> <PUBCHEM_COORDINATE_TYPE>
1
5
255

> <PUBCHEM_BONDANNOTATIONS>
17  20  8
18  20  8
22  23  8
22  24  8
23  25  8
24  26  8
25  27  8
26  27  8
4  18  8
4  8  8
8  17  8
9  12  3

$$$$
126456282
  -OEChem-02212016592D

 82 84  0     1  0  0  0  0  0999 V2000
    5.4641   -5.2702    0.0000 F   0  0  0  0  0  0  0  0  0  0  0  0
    8.0902    3.5086    0.0000 O   0  0  0  0  0  0  0  0  0  0  0  0
    7.1962    0.7298    0.0000 O   0  0  0  0  0  0  0  0  0  0  0  0
    8.0622    0.2298    0.0000 O   0  0  0  0  0  0  0  0  0  0  0  0
    2.8660    3.2298    0.0000 O   0  0  0  0  0  0  0  0  0  0  0  0
   10.6603   -2.2702    0.0000 O   0  0  0  0  0  0  0  0  0  0  0  0
    2.0000    1.7298    0.0000 O   0  0  0  0  0  0  0  0  0  0  0  0
   12.6090    0.4322    0.0000 O   0  0  0  0  0  0  0  0  0  0  0  0
    6.8301    4.7686    0.0000 N   0  0  0  0  0  0  0  0  0  0  0  0
    5.4641    0.7298    0.0000 N   0  0  0  0  0  0  0  0  0  0  0  0
    9.7942   -0.7702    0.0000 N   0  0  0  0  0  0  0  0  0  0  0  0
   11.6308    0.2243    0.0000 N   0  0  0  0  0  0  0  0  0  0  0  0
    6.3301    3.2298    0.0000 C   0  0  2  0  0  0  0  0  0  0  0  0
    6.3301    2.2298    0.0000 C   0  0  0  0  0  0  0  0  0  0  0  0
    5.5211    3.8176    0.0000 C   0  0  0  0  0  0  0  0  0  0  0  0
    5.4641    1.7298    0.0000 C   0  0  1  0  0  0  0  0  0  0  0  0
    5.8301    4.7686    0.0000 C   0  0  0  0  0  0  0  0  0  0  0  0
    7.1391    3.8176    0.0000 C   0  0  0  0  0  0  0  0  0  0  0  0
    6.3301   -0.7702    0.0000 C   0  0  1  0  0  0  0  0  0  0  0  0
    7.1962   -1.2702    0.0000 C   0  0  0  0  0  0  0  0  0  0  0  0
    6.3301    0.2298    0.0000 C   0  0  0  0  0  0  0  0  0  0  0  0
    8.9282   -1.2702    0.0000 C   0  0  1  0  0  0  0  0  0  0  0  0
    5.4641   -1.2702    0.0000 C   0  0  0  0  0  0  0  0  0  0  0  0
    8.9282   -2.2702    0.0000 C   0  0  0  0  0  0  0  0  0  0  0  0
    8.0622   -0.7702    0.0000 C   0  0  0  0  0  0  0  0  0  0  0  0
    4.5981    2.2298    0.0000 C   0  0  0  0  0  0  0  0  0  0  0  0
    5.4641   -2.2702    0.0000 C   0  0  0  0  0  0  0  0  0  0  0  0
    9.7942   -2.7702    0.0000 C   0  0  0  0  0  0  0  0  0  0  0  0
    8.0622   -2.7702    0.0000 C   0  0  0  0  0  0  0  0  0  0  0  0
    3.7320    1.7298    0.0000 C   0  0  0  0  0  0  0  0  0  0  0  0
    6.3301   -2.7702    0.0000 C   0  0  0  0  0  0  0  0  0  0  0  0
    4.5981   -2.7702    0.0000 C   0  0  0  0  0  0  0  0  0  0  0  0
   10.6603   -1.2702    0.0000 C   0  0  0  0  0  0  0  0  0  0  0  0
    2.8660    2.2298    0.0000 C   0  0  0  0  0  0  0  0  0  0  0  0
    6.3301   -3.7702    0.0000 C   0  0  0  0  0  0  0  0  0  0  0  0
    4.5981   -3.7702    0.0000 C   0  0  0  0  0  0  0  0  0  0  0  0
   11.5263   -0.7702    0.0000 C   0  0  0  0  0  0  0  0  0  0  0  0
    5.4641   -4.2702    0.0000 C   0  0  0  0  0  0  0  0  0  0  0  0
   12.4398   -1.1770    0.0000 C   0  0  0  0  0  0  0  0  0  0  0  0
   13.1090   -0.4338    0.0000 C   0  0  0  0  0  0  0  0  0  0  0  0
    2.0000    3.7298    0.0000 C   0  0  0  0  0  0  0  0  0  0  0  0
   14.1035   -0.5383    0.0000 C   0  0  0  0  0  0  0  0  0  0  0  0
    2.0000    4.7298    0.0000 C   0  0  0  0  0  0  0  0  0  0  0  0
    6.8826    2.9483    0.0000 H   0  0  0  0  0  0  0  0  0  0  0  0
    6.5422    1.6472    0.0000 H   0  0  0  0  0  0  0  0  0  0  0  0
    6.9407    2.3374    0.0000 H   0  0  0  0  0  0  0  0  0  0  0  0
    4.9547    4.0698    0.0000 H   0  0  0  0  0  0  0  0  0  0  0  0
    5.2111    3.2806    0.0000 H   0  0  0  0  0  0  0  0  0  0  0  0
    6.0010    1.4198    0.0000 H   0  0  0  0  0  0  0  0  0  0  0  0
    5.8949    5.3852    0.0000 H   0  0  0  0  0  0  0  0  0  0  0  0
    5.2237    4.8975    0.0000 H   0  0  0  0  0  0  0  0  0  0  0  0
    6.8671   -0.4602    0.0000 H   0  0  0  0  0  0  0  0  0  0  0  0
    7.1946    5.2702    0.0000 H   0  0  0  0  0  0  0  0  0  0  0  0
    6.7976   -1.7452    0.0000 H   0  0  0  0  0  0  0  0  0  0  0  0
    7.5947   -1.7452    0.0000 H   0  0  0  0  0  0  0  0  0  0  0  0
    4.9272    0.4198    0.0000 H   0  0  0  0  0  0  0  0  0  0  0  0
    8.9282   -0.6502    0.0000 H   0  0  0  0  0  0  0  0  0  0  0  0
    5.2520   -0.6876    0.0000 H   0  0  0  0  0  0  0  0  0  0  0  0
    4.8535   -1.3779    0.0000 H   0  0  0  0  0  0  0  0  0  0  0  0
    9.4651   -1.9602    0.0000 H   0  0  0  0  0  0  0  0  0  0  0  0
    4.5981    2.8498    0.0000 H   0  0  0  0  0  0  0  0  0  0  0  0
    9.7942   -0.1502    0.0000 H   0  0  0  0  0  0  0  0  0  0  0  0
    9.4842   -3.3072    0.0000 H   0  0  0  0  0  0  0  0  0  0  0  0
   10.3312   -3.0802    0.0000 H   0  0  0  0  0  0  0  0  0  0  0  0
   10.1042   -2.2333    0.0000 H   0  0  0  0  0  0  0  0  0  0  0  0
    7.7522   -2.2333    0.0000 H   0  0  0  0  0  0  0  0  0  0  0  0
    7.5252   -3.0802    0.0000 H   0  0  0  0  0  0  0  0  0  0  0  0
    8.3722   -3.3072    0.0000 H   0  0  0  0  0  0  0  0  0  0  0  0
    3.7320    1.1098    0.0000 H   0  0  0  0  0  0  0  0  0  0  0  0
    6.8671   -2.4602    0.0000 H   0  0  0  0  0  0  0  0  0  0  0  0
    4.0611   -2.4602    0.0000 H   0  0  0  0  0  0  0  0  0  0  0  0
    6.8671   -4.0802    0.0000 H   0  0  0  0  0  0  0  0  0  0  0  0
    4.0611   -4.0802    0.0000 H   0  0  0  0  0  0  0  0  0  0  0  0
   12.5687   -1.7834    0.0000 H   1  0  0  0  0  0  0  0  0  0  0  0
    1.3894    3.8374    0.0000 H   0  0  0  0  0  0  0  0  0  0  0  0
    1.7880    3.1472    0.0000 H   0  0  0  0  0  0  0  0  0  0  0  0
   14.7201   -0.6031    0.0000 H   1  0  0  0  0  0  0  0  0  0  0  0
   14.1683    0.0783    0.0000 H   1  0  0  0  0  0  0  0  0  0  0  0
   14.0387   -1.1549    0.0000 H   1  0  0  0  0  0  0  0  0  0  0  0
    2.6200    4.7298    0.0000 H   0  0  0  0  0  0  0  0  0  0  0  0
    2.0000    5.3498    0.0000 H   0  0  0  0  0  0  0  0  0  0  0  0
    1.3800    4.7298    0.0000 H   0  0  0  0  0  0  0  0  0  0  0  0
  1 38  1  0  0  0  0
  2 18  2  0  0  0  0
  3 21  2  0  0  0  0
  4 25  2  0  0  0  0
  5 34  1  0  0  0  0
  5 41  1  0  0  0  0
  6 33  2  0  0  0  0
  7 34  2  0  0  0  0
  8 12  1  0  0  0  0
  8 40  1  0  0  0  0
  9 17  1  0  0  0  0
  9 18  1  0  0  0  0
  9 53  1  0  0  0  0
 16 10  1  6  0  0  0
 10 21  1  0  0  0  0
 10 56  1  0  0  0  0
 22 11  1  1  0  0  0
 11 33  1  0  0  0  0
 11 62  1  0  0  0  0
 12 37  2  0  0  0  0
 13 14  1  6  0  0  0
 13 15  1  0  0  0  0
 13 18  1  0  0  0  0
 13 44  1  0  0  0  0
 14 16  1  0  0  0  0
 14 45  1  0  0  0  0
 14 46  1  0  0  0  0
 15 17  1  0  0  0  0
 15 47  1  0  0  0  0
 15 48  1  0  0  0  0
 16 26  1  0  0  0  0
 16 49  1  0  0  0  0
 17 50  1  0  0  0  0
 17 51  1  0  0  0  0
 19 20  1  6  0  0  0
 19 21  1  0  0  0  0
 19 23  1  0  0  0  0
 19 52  1  0  0  0  0
 20 25  1  0  0  0  0
 20 54  1  0  0  0  0
 20 55  1  0  0  0  0
 22 24  1  0  0  0  0
 22 25  1  0  0  0  0
 22 57  1  0  0  0  0
 23 27  1  0  0  0  0
 23 58  1  0  0  0  0
 23 59  1  0  0  0  0
 24 28  1  0  0  0  0
 24 29  1  0  0  0  0
 24 60  1  0  0  0  0
 26 30  2  0  0  0  0
 26 61  1  0  0  0  0
 27 31  2  0  0  0  0
 27 32  1  0  0  0  0
 28 63  1  0  0  0  0
 28 64  1  0  0  0  0
 28 65  1  0  0  0  0
 29 66  1  0  0  0  0
 29 67  1  0  0  0  0
 29 68  1  0  0  0  0
 30 34  1  0  0  0  0
 30 69  1  0  0  0  0
 31 35  1  0  0  0  0
 31 70  1  0  0  0  0
 32 36  2  0  0  0  0
 32 71  1  0  0  0  0
 33 37  1  0  0  0  0
 35 38  2  0  0  0  0
 35 72  1  0  0  0  0
 36 38  1  0  0  0  0
 36 73  1  0  0  0  0
 37 39  1  0  0  0  0
 39 40  2  0  0  0  0
 39 74  1  0  0  0  0
 40 42  1  0  0  0  0
 41 43  1  0  0  0  0
 41 75  1  0  0  0  0
 41 76  1  0  0  0  0
 42 77  1  0  0  0  0
 42 78  1  0  0  0  0
 42 79  1  0  0  0  0
 43 80  1  0  0  0  0
 43 81  1  0  0  0  0
 43 82  1  0  0  0  0
M  ISO  4  74   2  77   2  78   2  79   2
M  END
> <PUBCHEM_COMPOUND_CID>
126456282

> <PUBCHEM_COMPOUND_CANONICALIZED>
1

> <PUBCHEM_CACTVS_COMPLEXITY>
1010

> <PUBCHEM_CACTVS_HBOND_ACCEPTOR>
9

> <PUBCHEM_CACTVS_HBOND_DONOR>
3

> <PUBCHEM_CACTVS_ROTATABLE_BOND>
16

> <PUBCHEM_CACTVS_SUBSKEYS>
AAADcfB7uQAAAAAAAAAAAAAAAAAAAWLAAAAwAAAAAAAAAAABwAAAHwAUAAAADSzhng4yjJLQBACpA6XyWgCCAAAmIgAomKG+bNoIZjqAtbOWMYhmlhiI6cc/icCeAAAAAAAAAAAAAAAAAAAAAAAAAAAAAA==

> <PUBCHEM_IUPAC_OPENEYE_NAME>
ethyl (E,4S)-4-[[(2S,5S)-5-[[4-deuterio-5-(trideuteriomethyl)isoxazole-3-carbonyl]amino]-2-[(4-fluorophenyl)methyl]-6-methyl-4-oxo-heptanoyl]amino]-5-[(3S)-2-oxopyrrolidin-3-yl]pent-2-enoate

> <PUBCHEM_IUPAC_CAS_NAME>
(E,4S)-4-[[(2S,5S)-5-[[[4-deuterio-5-(trideuteriomethyl)-3-isoxazolyl]-oxomethyl]amino]-2-[(4-fluorophenyl)methyl]-6-methyl-1,4-dioxoheptyl]amino]-5-[(3S)-2-oxo-3-pyrrolidinyl]-2-pentenoic acid ethyl ester

> <PUBCHEM_IUPAC_NAME_MARKUP>
ethyl (<I>E</I>,4<I>S</I>)-4-[[(2<I>S</I>,5<I>S</I>)-5-[[4-deuterio-5-(trideuteriomethyl)-1,2-oxazole-3-carbonyl]amino]-2-[(4-fluorophenyl)methyl]-6-methyl-4-oxoheptanoyl]amino]-5-[(3<I>S</I>)-2-oxopyrrolidin-3-yl]pent-2-enoate

> <PUBCHEM_IUPAC_NAME>
ethyl (E,4S)-4-[[(2S,5S)-5-[[4-deuterio-5-(trideuteriomethyl)-1,2-oxazole-3-carbonyl]amino]-2-[(4-fluorophenyl)methyl]-6-methyl-4-oxoheptanoyl]amino]-5-[(3S)-2-oxopyrrolidin-3-yl]pent-2-enoate

> <PUBCHEM_IUPAC_SYSTEMATIC_NAME>
ethyl (E,4S)-4-[[(2S,5S)-5-[[4-deuterio-5-(trideuteriomethyl)-1,2-oxazol-3-yl]carbonylamino]-2-[(4-fluorophenyl)methyl]-6-methyl-4-oxidanylidene-heptanoyl]amino]-5-[(3S)-2-oxidanylidenepyrrolidin-3-yl]pent-2-enoate

> <PUBCHEM_IUPAC_TRADITIONAL_NAME>
(E,4S)-4-[[(2S,5S)-5-[[4-deuterio-5-(trideuteriomethyl)isoxazole-3-carbonyl]amino]-2-(4-fluorobenzyl)-4-keto-6-methyl-heptanoyl]amino]-5-[(3S)-2-ketopyrrolidin-3-yl]pent-2-enoic acid ethyl ester

> <PUBCHEM_IUPAC_INCHI>
InChI=1S/C31H39FN4O7/c1-5-42-27(38)11-10-24(16-21-12-13-33-29(21)39)34-30(40)22(15-20-6-8-23(32)9-7-20)17-26(37)28(18(2)3)35-31(41)25-14-19(4)43-36-25/h6-11,14,18,21-22,24,28H,5,12-13,15-17H2,1-4H3,(H,33,39)(H,34,40)(H,35,41)/b11-10+/t21-,22-,24+,28-/m0/s1/i4D3,14D

> <PUBCHEM_IUPAC_INCHIKEY>
CAYJBRBGZBCZKO-ZNQHFLJMSA-N

> <PUBCHEM_XLOGP3_AA>
3.1

> <PUBCHEM_EXACT_MASS>
602.305385

> <PUBCHEM_MOLECULAR_FORMULA>
C31H39FN4O7

> <PUBCHEM_MOLECULAR_WEIGHT>
602.7

> <PUBCHEM_OPENEYE_CAN_SMILES>
CCOC(=O)C=CC(CC1CCNC1=O)NC(=O)C(CC2=CC=C(C=C2)F)CC(=O)C(C(C)C)NC(=O)C3=NOC(=C3)C

> <PUBCHEM_OPENEYE_ISO_SMILES>
[2H]C1=C(ON=C1C(=O)N[C@@H](C(C)C)C(=O)C[C@H](CC2=CC=C(C=C2)F)C(=O)N[C@@H](C[C@@H]3CCNC3=O)/C=C/C(=O)OCC)C([2H])([2H])[2H]

> <PUBCHEM_CACTVS_TPSA>
157

> <PUBCHEM_MONOISOTOPIC_WEIGHT>
602.305385

> <PUBCHEM_TOTAL_CHARGE>
0

> <PUBCHEM_HEAVY_ATOM_COUNT>
43

> <PUBCHEM_ATOM_DEF_STEREO_COUNT>
4

> <PUBCHEM_ATOM_UDEF_STEREO_COUNT>
0

> <PUBCHEM_BOND_DEF_STEREO_COUNT>
1

> <PUBCHEM_BOND_UDEF_STEREO_COUNT>
0

> <PUBCHEM_ISOTOPIC_ATOM_COUNT>
4

> <PUBCHEM_COMPONENT_COUNT>
1

> <PUBCHEM_CACTVS_TAUTO_COUNT>
-1

> <PUBCHEM_COORDINATE_TYPE>
1
5
255

> <PUBCHEM_BONDANNOTATIONS>
16  10  6
22  11  5
12  37  8
13  14  6
19  20  6
27  31  8
27  32  8
31  35  8
32  36  8
35  38  8
36  38  8
37  39  8
39  40  8
8  12  8
8  40  8

$$$$
126678757
  -OEChem-02212016592D

 45 47  0     0  0  0  0  0  0999 V2000
    6.7189    2.4371    0.0000 O   0  0  0  0  0  0  0  0  0  0  0  0
    3.4600   -2.7681    0.0000 O   0  0  0  0  0  0  0  0  0  0  0  0
    6.3513   -1.1126    0.0000 O   0  0  0  0  0  0  0  0  0  0  0  0
    7.0849    5.4759    0.0000 O   0  0  0  0  0  0  0  0  0  0  0  0
    5.3528    5.4759    0.0000 O   0  0  0  0  0  0  0  0  0  0  0  0
    4.9500   -0.0945    0.0000 N   0  0  0  0  0  0  0  0  0  0  0  0
    7.0279    3.3881    0.0000 N   0  0  0  0  0  0  0  0  0  0  0  0
    3.7690   -1.8171    0.0000 N   0  0  0  0  0  0  0  0  0  0  0  0
    2.5369   -6.3559    0.0000 N   0  0  0  0  0  0  0  0  0  0  0  0
    5.1311    1.6280    0.0000 C   0  0  0  0  0  0  0  0  0  0  0  0
    5.5378    0.7145    0.0000 C   0  0  0  0  0  0  0  0  0  0  0  0
    5.7189    2.4371    0.0000 C   0  0  0  0  0  0  0  0  0  0  0  0
    5.4098    3.3881    0.0000 C   0  0  0  0  0  0  0  0  0  0  0  0
    5.3568   -1.0080    0.0000 C   0  0  0  0  0  0  0  0  0  0  0  0
    4.7690   -1.8171    0.0000 C   0  0  0  0  0  0  0  0  0  0  0  0
    4.2690   -3.3559    0.0000 C   0  0  0  0  0  0  0  0  0  0  0  0
    4.2690   -4.3559    0.0000 C   0  0  0  0  0  0  0  0  0  0  0  0
    5.0780   -2.7681    0.0000 C   0  0  0  0  0  0  0  0  0  0  0  0
    6.2189    3.9759    0.0000 C   0  0  0  0  0  0  0  0  0  0  0  0
    3.4030   -4.8559    0.0000 C   0  0  0  0  0  0  0  0  0  0  0  0
    5.1350   -4.8559    0.0000 C   0  0  0  0  0  0  0  0  0  0  0  0
    3.4030   -5.8559    0.0000 C   0  0  0  0  0  0  0  0  0  0  0  0
    5.1350   -5.8559    0.0000 C   0  0  0  0  0  0  0  0  0  0  0  0
    4.2690   -6.3559    0.0000 C   0  0  0  0  0  0  0  0  0  0  0  0
    6.2189    4.9759    0.0000 C   0  0  0  0  0  0  0  0  0  0  0  0
    7.0849    6.4759    0.0000 C   0  0  0  0  0  0  0  0  0  0  0  0
    7.9509    6.9759    0.0000 C   0  0  0  0  0  0  0  0  0  0  0  0
    4.7004    2.0740    0.0000 H   0  0  0  0  0  0  0  0  0  0  0  0
    4.6171    1.2814    0.0000 H   0  0  0  0  0  0  0  0  0  0  0  0
    5.9685    0.2685    0.0000 H   0  0  0  0  0  0  0  0  0  0  0  0
    6.0518    1.0612    0.0000 H   0  0  0  0  0  0  0  0  0  0  0  0
    4.3334   -0.0297    0.0000 H   0  0  0  0  0  0  0  0  0  0  0  0
    4.8202    3.5797    0.0000 H   0  0  0  0  0  0  0  0  0  0  0  0
    5.6677   -2.9597    0.0000 H   0  0  0  0  0  0  0  0  0  0  0  0
    2.8660   -4.5459    0.0000 H   0  0  0  0  0  0  0  0  0  0  0  0
    5.6720   -4.5459    0.0000 H   0  0  0  0  0  0  0  0  0  0  0  0
    5.6720   -6.1659    0.0000 H   0  0  0  0  0  0  0  0  0  0  0  0
    4.2690   -6.9759    0.0000 H   0  0  0  0  0  0  0  0  0  0  0  0
    6.8728    7.0585    0.0000 H   0  0  0  0  0  0  0  0  0  0  0  0
    6.4743    6.3682    0.0000 H   0  0  0  0  0  0  0  0  0  0  0  0
    2.5369   -6.9759    0.0000 H   0  0  0  0  0  0  0  0  0  0  0  0
    2.0000   -6.0459    0.0000 H   0  0  0  0  0  0  0  0  0  0  0  0
    8.2609    6.4390    0.0000 H   0  0  0  0  0  0  0  0  0  0  0  0
    8.4878    7.2859    0.0000 H   0  0  0  0  0  0  0  0  0  0  0  0
    7.6409    7.5128    0.0000 H   0  0  0  0  0  0  0  0  0  0  0  0
  1  7  1  0  0  0  0
  1 12  1  0  0  0  0
  2  8  1  0  0  0  0
  2 16  1  0  0  0  0
  3 14  2  0  0  0  0
  4 25  1  0  0  0  0
  4 26  1  0  0  0  0
  5 25  2  0  0  0  0
  6 11  1  0  0  0  0
  6 14  1  0  0  0  0
  6 32  1  0  0  0  0
  7 19  2  0  0  0  0
  8 15  2  0  0  0  0
  9 22  1  0  0  0  0
  9 41  1  0  0  0  0
  9 42  1  0  0  0  0
 10 11  1  0  0  0  0
 10 12  1  0  0  0  0
 10 28  1  0  0  0  0
 10 29  1  0  0  0  0
 11 30  1  0  0  0  0
 11 31  1  0  0  0  0
 12 13  2  0  0  0  0
 13 19  1  0  0  0  0
 13 33  1  0  0  0  0
 14 15  1  0  0  0  0
 15 18  1  0  0  0  0
 16 17  1  0  0  0  0
 16 18  2  0  0  0  0
 17 20  2  0  0  0  0
 17 21  1  0  0  0  0
 18 34  1  0  0  0  0
 19 25  1  0  0  0  0
 20 22  1  0  0  0  0
 20 35  1  0  0  0  0
 21 23  2  0  0  0  0
 21 36  1  0  0  0  0
 22 24  2  0  0  0  0
 23 24  1  0  0  0  0
 23 37  1  0  0  0  0
 24 38  1  0  0  0  0
 26 27  1  0  0  0  0
 26 39  1  0  0  0  0
 26 40  1  0  0  0  0
 27 43  1  0  0  0  0
 27 44  1  0  0  0  0
 27 45  1  0  0  0  0
M  END
> <PUBCHEM_COMPOUND_CID>
126678757

> <PUBCHEM_COMPOUND_CANONICALIZED>
1

> <PUBCHEM_CACTVS_COMPLEXITY>
520

> <PUBCHEM_CACTVS_HBOND_ACCEPTOR>
8

> <PUBCHEM_CACTVS_HBOND_DONOR>
2

> <PUBCHEM_CACTVS_ROTATABLE_BOND>
8

> <PUBCHEM_CACTVS_SUBSKEYS>
AAADceB7uAAAAAAAAAAAAAAAAAAAAWLAAAAwAAAAAAAAAAAB8AAAHgAUAAAADAzhngYyzJLQBACpA6XyWgSCAAAmIgAomKG+bNoKZjqAtZuXMYhm1hmI6cf/yKCOAAAAQAAAAAAAAACAAAAAAAAAAAAAAA==

> <PUBCHEM_IUPAC_OPENEYE_NAME>
ethyl 5-[2-[[5-(3-aminophenyl)isoxazole-3-carbonyl]amino]ethyl]isoxazole-3-carboxylate

> <PUBCHEM_IUPAC_CAS_NAME>
5-[2-[[[5-(3-aminophenyl)-3-isoxazolyl]-oxomethyl]amino]ethyl]-3-isoxazolecarboxylic acid ethyl ester

> <PUBCHEM_IUPAC_NAME_MARKUP>
ethyl 5-[2-[[5-(3-aminophenyl)-1,2-oxazole-3-carbonyl]amino]ethyl]-1,2-oxazole-3-carboxylate

> <PUBCHEM_IUPAC_NAME>
ethyl 5-[2-[[5-(3-aminophenyl)-1,2-oxazole-3-carbonyl]amino]ethyl]-1,2-oxazole-3-carboxylate

> <PUBCHEM_IUPAC_SYSTEMATIC_NAME>
ethyl 5-[2-[[5-(3-aminophenyl)-1,2-oxazol-3-yl]carbonylamino]ethyl]-1,2-oxazole-3-carboxylate

> <PUBCHEM_IUPAC_TRADITIONAL_NAME>
5-[2-[[5-(3-aminophenyl)isoxazole-3-carbonyl]amino]ethyl]isoxazole-3-carboxylic acid ethyl ester

> <PUBCHEM_IUPAC_INCHI>
InChI=1S/C18H18N4O5/c1-2-25-18(24)15-9-13(26-22-15)6-7-20-17(23)14-10-16(27-21-14)11-4-3-5-12(19)8-11/h3-5,8-10H,2,6-7,19H2,1H3,(H,20,23)

> <PUBCHEM_IUPAC_INCHIKEY>
FXZRADJOMLXVOI-UHFFFAOYSA-N

> <PUBCHEM_XLOGP3_AA>
2

> <PUBCHEM_EXACT_MASS>
370.12772

> <PUBCHEM_MOLECULAR_FORMULA>
C18H18N4O5

> <PUBCHEM_MOLECULAR_WEIGHT>
370.4

> <PUBCHEM_OPENEYE_CAN_SMILES>
CCOC(=O)C1=NOC(=C1)CCNC(=O)C2=NOC(=C2)C3=CC(=CC=C3)N

> <PUBCHEM_OPENEYE_ISO_SMILES>
CCOC(=O)C1=NOC(=C1)CCNC(=O)C2=NOC(=C2)C3=CC(=CC=C3)N

> <PUBCHEM_CACTVS_TPSA>
134

> <PUBCHEM_MONOISOTOPIC_WEIGHT>
370.12772

> <PUBCHEM_TOTAL_CHARGE>
0

> <PUBCHEM_HEAVY_ATOM_COUNT>
27

> <PUBCHEM_ATOM_DEF_STEREO_COUNT>
0

> <PUBCHEM_ATOM_UDEF_STEREO_COUNT>
0

> <PUBCHEM_BOND_DEF_STEREO_COUNT>
0

> <PUBCHEM_BOND_UDEF_STEREO_COUNT>
0

> <PUBCHEM_ISOTOPIC_ATOM_COUNT>
0

> <PUBCHEM_COMPONENT_COUNT>
1

> <PUBCHEM_CACTVS_TAUTO_COUNT>
-1

> <PUBCHEM_COORDINATE_TYPE>
1
5
255

> <PUBCHEM_BONDANNOTATIONS>
1  12  8
1  7  8
12  13  8
13  19  8
15  18  8
16  18  8
17  20  8
17  21  8
2  16  8
2  8  8
20  22  8
21  23  8
22  24  8
23  24  8
7  19  8
8  15  8

$$$$
126678768
  -OEChem-02212016592D

 43 45  0     0  0  0  0  0  0999 V2000
    5.3159    2.1271    0.0000 O   0  0  0  0  0  0  0  0  0  0  0  0
    2.0570   -3.0781    0.0000 O   0  0  0  0  0  0  0  0  0  0  0  0
    5.6819    5.1659    0.0000 O   0  0  0  0  0  0  0  0  0  0  0  0
    4.9483   -1.4226    0.0000 O   0  0  0  0  0  0  0  0  0  0  0  0
    3.9499    5.1659    0.0000 O   0  0  0  0  0  0  0  0  0  0  0  0
    3.5471   -0.4045    0.0000 N   0  0  0  0  0  0  0  0  0  0  0  0
    5.6249    3.0781    0.0000 N   0  0  0  0  0  0  0  0  0  0  0  0
    2.3660   -2.1271    0.0000 N   0  0  0  0  0  0  0  0  0  0  0  0
    3.7281    1.3180    0.0000 C   0  0  0  0  0  0  0  0  0  0  0  0
    4.1349    0.4045    0.0000 C   0  0  0  0  0  0  0  0  0  0  0  0
    4.3159    2.1271    0.0000 C   0  0  0  0  0  0  0  0  0  0  0  0
    4.0069    3.0781    0.0000 C   0  0  0  0  0  0  0  0  0  0  0  0
    3.9538   -1.3180    0.0000 C   0  0  0  0  0  0  0  0  0  0  0  0
    3.3660   -2.1271    0.0000 C   0  0  0  0  0  0  0  0  0  0  0  0
    2.8660   -3.6659    0.0000 C   0  0  0  0  0  0  0  0  0  0  0  0
    4.8159    3.6659    0.0000 C   0  0  0  0  0  0  0  0  0  0  0  0
    3.6750   -3.0781    0.0000 C   0  0  0  0  0  0  0  0  0  0  0  0
    2.8660   -4.6659    0.0000 C   0  0  0  0  0  0  0  0  0  0  0  0
    2.0000   -5.1659    0.0000 C   0  0  0  0  0  0  0  0  0  0  0  0
    3.7320   -5.1659    0.0000 C   0  0  0  0  0  0  0  0  0  0  0  0
    4.8159    4.6659    0.0000 C   0  0  0  0  0  0  0  0  0  0  0  0
    2.0000   -6.1659    0.0000 C   0  0  0  0  0  0  0  0  0  0  0  0
    3.7320   -6.1659    0.0000 C   0  0  0  0  0  0  0  0  0  0  0  0
    2.8660   -6.6659    0.0000 C   0  0  0  0  0  0  0  0  0  0  0  0
    5.6819    6.1659    0.0000 C   0  0  0  0  0  0  0  0  0  0  0  0
    6.5480    6.6659    0.0000 C   0  0  0  0  0  0  0  0  0  0  0  0
    3.2974    1.7640    0.0000 H   0  0  0  0  0  0  0  0  0  0  0  0
    3.2141    0.9714    0.0000 H   0  0  0  0  0  0  0  0  0  0  0  0
    4.5656   -0.0415    0.0000 H   0  0  0  0  0  0  0  0  0  0  0  0
    4.6489    0.7512    0.0000 H   0  0  0  0  0  0  0  0  0  0  0  0
    2.9305   -0.3397    0.0000 H   0  0  0  0  0  0  0  0  0  0  0  0
    3.4172    3.2697    0.0000 H   0  0  0  0  0  0  0  0  0  0  0  0
    4.2647   -3.2697    0.0000 H   0  0  0  0  0  0  0  0  0  0  0  0
    1.4631   -4.8559    0.0000 H   0  0  0  0  0  0  0  0  0  0  0  0
    4.2690   -4.8559    0.0000 H   0  0  0  0  0  0  0  0  0  0  0  0
    1.4631   -6.4759    0.0000 H   0  0  0  0  0  0  0  0  0  0  0  0
    4.2690   -6.4759    0.0000 H   0  0  0  0  0  0  0  0  0  0  0  0
    2.8660   -7.2859    0.0000 H   0  0  0  0  0  0  0  0  0  0  0  0
    5.4699    6.7485    0.0000 H   0  0  0  0  0  0  0  0  0  0  0  0
    5.0714    6.0582    0.0000 H   0  0  0  0  0  0  0  0  0  0  0  0
    6.8580    6.1290    0.0000 H   0  0  0  0  0  0  0  0  0  0  0  0
    7.0849    6.9759    0.0000 H   0  0  0  0  0  0  0  0  0  0  0  0
    6.2380    7.2028    0.0000 H   0  0  0  0  0  0  0  0  0  0  0  0
  1  7  1  0  0  0  0
  1 11  1  0  0  0  0
  2  8  1  0  0  0  0
  2 15  1  0  0  0  0
  3 21  1  0  0  0  0
  3 25  1  0  0  0  0
  4 13  2  0  0  0  0
  5 21  2  0  0  0  0
  6 10  1  0  0  0  0
  6 13  1  0  0  0  0
  6 31  1  0  0  0  0
  7 16  2  0  0  0  0
  8 14  2  0  0  0  0
  9 10  1  0  0  0  0
  9 11  1  0  0  0  0
  9 27  1  0  0  0  0
  9 28  1  0  0  0  0
 10 29  1  0  0  0  0
 10 30  1  0  0  0  0
 11 12  2  0  0  0  0
 12 16  1  0  0  0  0
 12 32  1  0  0  0  0
 13 14  1  0  0  0  0
 14 17  1  0  0  0  0
 15 17  2  0  0  0  0
 15 18  1  0  0  0  0
 16 21  1  0  0  0  0
 17 33  1  0  0  0  0
 18 19  2  0  0  0  0
 18 20  1  0  0  0  0
 19 22  1  0  0  0  0
 19 34  1  0  0  0  0
 20 23  2  0  0  0  0
 20 35  1  0  0  0  0
 22 24  2  0  0  0  0
 22 36  1  0  0  0  0
 23 24  1  0  0  0  0
 23 37  1  0  0  0  0
 24 38  1  0  0  0  0
 25 26  1  0  0  0  0
 25 39  1  0  0  0  0
 25 40  1  0  0  0  0
 26 41  1  0  0  0  0
 26 42  1  0  0  0  0
 26 43  1  0  0  0  0
M  END
> <PUBCHEM_COMPOUND_CID>
126678768

> <PUBCHEM_COMPOUND_CANONICALIZED>
1

> <PUBCHEM_CACTVS_COMPLEXITY>
483

> <PUBCHEM_CACTVS_HBOND_ACCEPTOR>
7

> <PUBCHEM_CACTVS_HBOND_DONOR>
1

> <PUBCHEM_CACTVS_ROTATABLE_BOND>
8

> <PUBCHEM_CACTVS_SUBSKEYS>
AAADceB7OAAAAAAAAAAAAAAAAAAAAWLAAAAwAAAAAAAAAAAB8AAAHgAUAAAADAzhngYyjJLQBACpA6XyWgSCAAAmIgAomKG+bNoKZjqAtZuXMYhm1hmI6cf/yKCOAAAAAAAAAAAAAAAAAAAAAAAAAAAAAA==

> <PUBCHEM_IUPAC_OPENEYE_NAME>
ethyl 5-[2-[(5-phenylisoxazole-3-carbonyl)amino]ethyl]isoxazole-3-carboxylate

> <PUBCHEM_IUPAC_CAS_NAME>
5-[2-[[oxo-(5-phenyl-3-isoxazolyl)methyl]amino]ethyl]-3-isoxazolecarboxylic acid ethyl ester

> <PUBCHEM_IUPAC_NAME_MARKUP>
ethyl 5-[2-[(5-phenyl-1,2-oxazole-3-carbonyl)amino]ethyl]-1,2-oxazole-3-carboxylate

> <PUBCHEM_IUPAC_NAME>
ethyl 5-[2-[(5-phenyl-1,2-oxazole-3-carbonyl)amino]ethyl]-1,2-oxazole-3-carboxylate

> <PUBCHEM_IUPAC_SYSTEMATIC_NAME>
ethyl 5-[2-[(5-phenyl-1,2-oxazol-3-yl)carbonylamino]ethyl]-1,2-oxazole-3-carboxylate

> <PUBCHEM_IUPAC_TRADITIONAL_NAME>
5-[2-[(5-phenylisoxazole-3-carbonyl)amino]ethyl]isoxazole-3-carboxylic acid ethyl ester

> <PUBCHEM_IUPAC_INCHI>
InChI=1S/C18H17N3O5/c1-2-24-18(23)15-10-13(25-21-15)8-9-19-17(22)14-11-16(26-20-14)12-6-4-3-5-7-12/h3-7,10-11H,2,8-9H2,1H3,(H,19,22)

> <PUBCHEM_IUPAC_INCHIKEY>
JJZFTZSNEMBTFR-UHFFFAOYSA-N

> <PUBCHEM_XLOGP3_AA>
2.6

> <PUBCHEM_EXACT_MASS>
355.116821

> <PUBCHEM_MOLECULAR_FORMULA>
C18H17N3O5

> <PUBCHEM_MOLECULAR_WEIGHT>
355.3

> <PUBCHEM_OPENEYE_CAN_SMILES>
CCOC(=O)C1=NOC(=C1)CCNC(=O)C2=NOC(=C2)C3=CC=CC=C3

> <PUBCHEM_OPENEYE_ISO_SMILES>
CCOC(=O)C1=NOC(=C1)CCNC(=O)C2=NOC(=C2)C3=CC=CC=C3

> <PUBCHEM_CACTVS_TPSA>
108

> <PUBCHEM_MONOISOTOPIC_WEIGHT>
355.116821

> <PUBCHEM_TOTAL_CHARGE>
0

> <PUBCHEM_HEAVY_ATOM_COUNT>
26

> <PUBCHEM_ATOM_DEF_STEREO_COUNT>
0

> <PUBCHEM_ATOM_UDEF_STEREO_COUNT>
0

> <PUBCHEM_BOND_DEF_STEREO_COUNT>
0

> <PUBCHEM_BOND_UDEF_STEREO_COUNT>
0

> <PUBCHEM_ISOTOPIC_ATOM_COUNT>
0

> <PUBCHEM_COMPONENT_COUNT>
1

> <PUBCHEM_CACTVS_TAUTO_COUNT>
-1

> <PUBCHEM_COORDINATE_TYPE>
1
5
255

> <PUBCHEM_BONDANNOTATIONS>
1  11  8
1  7  8
11  12  8
12  16  8
14  17  8
15  17  8
18  19  8
18  20  8
19  22  8
2  15  8
2  8  8
20  23  8
22  24  8
23  24  8
7  16  8
8  14  8

$$$$
127049008
  -OEChem-02212016592D

 85 88  0     1  0  0  0  0  0999 V2000
    7.4099   -2.8653    0.0000 O   0  0  0  0  0  0  0  0  0  0  0  0
    7.2956    0.0774    0.0000 O   0  0  0  0  0  0  0  0  0  0  0  0
    5.0434   -4.5743    0.0000 O   0  0  0  0  0  0  0  0  0  0  0  0
    9.5103    2.9226    0.0000 O   0  0  0  0  0  0  0  0  0  0  0  0
    3.6942    0.4804    0.0000 O   0  0  0  0  0  0  0  0  0  0  0  0
    7.4280    5.1659    0.0000 O   0  0  0  0  0  0  0  0  0  0  0  0
    4.8532    1.7675    0.0000 O   0  0  0  0  0  0  0  0  0  0  0  0
    8.8779   -0.6271    0.0000 N   0  0  0  0  0  0  0  0  0  0  0  0
    6.8747   -1.2180    0.0000 N   0  0  0  0  0  0  0  0  0  0  0  0
    8.1091    1.9045    0.0000 N   0  0  0  0  0  0  0  0  0  0  0  0
    3.4556   -3.7652    0.0000 N   0  0  0  0  0  0  0  0  0  0  0  0
    8.2370    4.5781    0.0000 N   0  0  0  0  0  0  0  0  0  0  0  0
    9.3779   -2.1659    0.0000 C   0  0  2  0  0  0  0  0  0  0  0  0
    8.5689   -1.5781    0.0000 C   0  0  1  0  0  0  0  0  0  0  0  0
   10.1869   -1.5781    0.0000 C   0  0  0  0  0  0  0  0  0  0  0  0
    9.8779   -0.6271    0.0000 C   0  0  0  0  0  0  0  0  0  0  0  0
    9.3779   -3.1659    0.0000 C   0  0  0  0  0  0  0  0  0  0  0  0
    7.6178   -1.8871    0.0000 C   0  0  0  0  0  0  0  0  0  0  0  0
    8.2901    0.1819    0.0000 C   0  0  0  0  0  0  0  0  0  0  0  0
    8.6969    1.0955    0.0000 C   0  0  2  0  0  0  0  0  0  0  0  0
    5.9236   -1.5270    0.0000 C   0  0  1  0  0  0  0  0  0  0  0  0
    4.7647   -2.8142    0.0000 C   0  0  2  0  0  0  0  0  0  0  0  0
    5.7157   -2.5052    0.0000 C   0  0  0  0  0  0  0  0  0  0  0  0
    9.6914    1.2000    0.0000 C   0  0  0  0  0  0  0  0  0  0  0  0
    8.5119   -3.6659    0.0000 C   0  0  0  0  0  0  0  0  0  0  0  0
   10.2439   -3.6659    0.0000 C   0  0  0  0  0  0  0  0  0  0  0  0
    3.9556   -2.2264    0.0000 C   0  0  0  0  0  0  0  0  0  0  0  0
    3.1466   -2.8142    0.0000 C   0  0  0  0  0  0  0  0  0  0  0  0
    4.4556   -3.7652    0.0000 C   0  0  0  0  0  0  0  0  0  0  0  0
    5.1805   -0.8579    0.0000 C   0  0  0  0  0  0  0  0  0  0  0  0
   10.0981    2.1136    0.0000 C   0  0  0  0  0  0  0  0  0  0  0  0
   10.2792    0.3910    0.0000 C   0  0  0  0  0  0  0  0  0  0  0  0
    8.5119   -4.6659    0.0000 C   0  0  0  0  0  0  0  0  0  0  0  0
   10.2439   -4.6659    0.0000 C   0  0  0  0  0  0  0  0  0  0  0  0
    9.3779   -5.1659    0.0000 C   0  0  0  0  0  0  0  0  0  0  0  0
    8.5158    2.8180    0.0000 C   0  0  0  0  0  0  0  0  0  0  0  0
    5.3884    0.1202    0.0000 C   0  0  0  0  0  0  0  0  0  0  0  0
    7.9280    3.6271    0.0000 C   0  0  0  0  0  0  0  0  0  0  0  0
    4.6453    0.7894    0.0000 C   0  0  0  0  0  0  0  0  0  0  0  0
    6.9280    3.6271    0.0000 C   0  0  0  0  0  0  0  0  0  0  0  0
    6.6190    4.5781    0.0000 C   0  0  0  0  0  0  0  0  0  0  0  0
    2.9511    1.1495    0.0000 C   0  0  0  0  0  0  0  0  0  0  0  0
    5.6680    4.8871    0.0000 C   0  0  0  0  0  0  0  0  0  0  0  0
    2.0000    0.8405    0.0000 C   0  0  0  0  0  0  0  0  0  0  0  0
    8.8255   -2.4474    0.0000 H   0  0  0  0  0  0  0  0  0  0  0  0
    8.1305   -1.1397    0.0000 H   0  0  0  0  0  0  0  0  0  0  0  0
   10.4969   -2.1151    0.0000 H   0  0  0  0  0  0  0  0  0  0  0  0
   10.7533   -1.3260    0.0000 H   0  0  0  0  0  0  0  0  0  0  0  0
   10.4844   -0.4982    0.0000 H   0  0  0  0  0  0  0  0  0  0  0  0
    9.8131   -0.0105    0.0000 H   0  0  0  0  0  0  0  0  0  0  0  0
    8.9490    1.6619    0.0000 H   0  0  0  0  0  0  0  0  0  0  0  0
    6.3844   -1.9419    0.0000 H   0  0  0  0  0  0  0  0  0  0  0  0
    7.0036   -0.6116    0.0000 H   0  0  0  0  0  0  0  0  0  0  0  0
    4.8617   -2.2018    0.0000 H   0  0  0  0  0  0  0  0  0  0  0  0
    5.8020   -3.1191    0.0000 H   0  0  0  0  0  0  0  0  0  0  0  0
    6.3354   -2.5268    0.0000 H   0  0  0  0  0  0  0  0  0  0  0  0
   10.3080    1.2648    0.0000 H   0  0  0  0  0  0  0  0  0  0  0  0
    4.3705   -1.7657    0.0000 H   0  0  0  0  0  0  0  0  0  0  0  0
    3.5408   -1.7657    0.0000 H   0  0  0  0  0  0  0  0  0  0  0  0
    7.9750   -3.3559    0.0000 H   0  0  0  0  0  0  0  0  0  0  0  0
   10.7809   -3.3559    0.0000 H   0  0  0  0  0  0  0  0  0  0  0  0
    2.8366   -2.2773    0.0000 H   0  0  0  0  0  0  0  0  0  0  0  0
    2.5802   -3.0664    0.0000 H   0  0  0  0  0  0  0  0  0  0  0  0
    7.4925    1.8397    0.0000 H   0  0  0  0  0  0  0  0  0  0  0  0
    4.5908   -1.0495    0.0000 H   0  0  0  0  0  0  0  0  0  0  0  0
   10.6645    1.8614    0.0000 H   0  0  0  0  0  0  0  0  0  0  0  0
   10.3503    2.6800    0.0000 H   0  0  0  0  0  0  0  0  0  0  0  0
    9.5317    2.3657    0.0000 H   0  0  0  0  0  0  0  0  0  0  0  0
    9.7776    0.0266    0.0000 H   0  0  0  0  0  0  0  0  0  0  0  0
   10.6436   -0.1106    0.0000 H   0  0  0  0  0  0  0  0  0  0  0  0
   10.7808    0.7554    0.0000 H   0  0  0  0  0  0  0  0  0  0  0  0
    3.0912   -4.2668    0.0000 H   0  0  0  0  0  0  0  0  0  0  0  0
    7.9750   -4.9759    0.0000 H   0  0  0  0  0  0  0  0  0  0  0  0
   10.7809   -4.9759    0.0000 H   0  0  0  0  0  0  0  0  0  0  0  0
    9.3779   -5.7859    0.0000 H   0  0  0  0  0  0  0  0  0  0  0  0
    5.9781    0.3118    0.0000 H   0  0  0  0  0  0  0  0  0  0  0  0
    6.5636    3.1255    0.0000 H   0  0  0  0  0  0  0  0  0  0  0  0
    3.4396    1.5312    0.0000 H   0  0  0  0  0  0  0  0  0  0  0  0
    2.6600    1.6969    0.0000 H   0  0  0  0  0  0  0  0  0  0  0  0
    5.8595    5.4768    0.0000 H   0  0  0  0  0  0  0  0  0  0  0  0
    5.0783    5.0787    0.0000 H   0  0  0  0  0  0  0  0  0  0  0  0
    5.4764    4.2975    0.0000 H   0  0  0  0  0  0  0  0  0  0  0  0
    1.8084    1.4301    0.0000 H   0  0  0  0  0  0  0  0  0  0  0  0
    1.4103    0.6489    0.0000 H   0  0  0  0  0  0  0  0  0  0  0  0
    2.1916    0.2508    0.0000 H   0  0  0  0  0  0  0  0  0  0  0  0
  1 18  2  0  0  0  0
  2 19  2  0  0  0  0
  3 29  2  0  0  0  0
  4 36  2  0  0  0  0
  5 39  1  0  0  0  0
  5 42  1  0  0  0  0
  6 12  1  0  0  0  0
  6 41  1  0  0  0  0
  7 39  2  0  0  0  0
  8 14  1  0  0  0  0
  8 16  1  0  0  0  0
  8 19  1  0  0  0  0
  9 18  1  0  0  0  0
 21  9  1  1  0  0  0
  9 53  1  0  0  0  0
 20 10  1  1  0  0  0
 10 36  1  0  0  0  0
 10 64  1  0  0  0  0
 11 28  1  0  0  0  0
 11 29  1  0  0  0  0
 11 72  1  0  0  0  0
 12 38  2  0  0  0  0
 13 14  1  0  0  0  0
 13 15  1  0  0  0  0
 13 17  1  6  0  0  0
 13 45  1  0  0  0  0
 14 18  1  1  0  0  0
 14 46  1  0  0  0  0
 15 16  1  0  0  0  0
 15 47  1  0  0  0  0
 15 48  1  0  0  0  0
 16 49  1  0  0  0  0
 16 50  1  0  0  0  0
 17 25  2  0  0  0  0
 17 26  1  0  0  0  0
 19 20  1  0  0  0  0
 20 24  1  0  0  0  0
 20 51  1  0  0  0  0
 21 23  1  0  0  0  0
 21 30  1  0  0  0  0
 21 52  1  0  0  0  0
 22 23  1  1  0  0  0
 22 27  1  0  0  0  0
 22 29  1  0  0  0  0
 22 54  1  0  0  0  0
 23 55  1  0  0  0  0
 23 56  1  0  0  0  0
 24 31  1  0  0  0  0
 24 32  1  0  0  0  0
 24 57  1  0  0  0  0
 25 33  1  0  0  0  0
 25 60  1  0  0  0  0
 26 34  2  0  0  0  0
 26 61  1  0  0  0  0
 27 28  1  0  0  0  0
 27 58  1  0  0  0  0
 27 59  1  0  0  0  0
 28 62  1  0  0  0  0
 28 63  1  0  0  0  0
 30 37  2  0  0  0  0
 30 65  1  0  0  0  0
 31 66  1  0  0  0  0
 31 67  1  0  0  0  0
 31 68  1  0  0  0  0
 32 69  1  0  0  0  0
 32 70  1  0  0  0  0
 32 71  1  0  0  0  0
 33 35  2  0  0  0  0
 33 73  1  0  0  0  0
 34 35  1  0  0  0  0
 34 74  1  0  0  0  0
 35 75  1  0  0  0  0
 36 38  1  0  0  0  0
 37 39  1  0  0  0  0
 37 76  1  0  0  0  0
 38 40  1  0  0  0  0
 40 41  2  0  0  0  0
 40 77  1  0  0  0  0
 41 43  1  0  0  0  0
 42 44  1  0  0  0  0
 42 78  1  0  0  0  0
 42 79  1  0  0  0  0
 43 80  1  0  0  0  0
 43 81  1  0  0  0  0
 43 82  1  0  0  0  0
 44 83  1  0  0  0  0
 44 84  1  0  0  0  0
 44 85  1  0  0  0  0
M  END
> <PUBCHEM_COMPOUND_CID>
127049008

> <PUBCHEM_COMPOUND_CANONICALIZED>
1

> <PUBCHEM_CACTVS_COMPLEXITY>
1080

> <PUBCHEM_CACTVS_HBOND_ACCEPTOR>
8

> <PUBCHEM_CACTVS_HBOND_DONOR>
3

> <PUBCHEM_CACTVS_ROTATABLE_BOND>
13

> <PUBCHEM_CACTVS_SUBSKEYS>
AAADcfB/uAAAAAAAAAAAAAAAAAAAAWLFgAAwAAAAAAAAAAABwAAAHgAUAAAADSzhngYyjJPQBACpA6XyWgCCAAAmIgAomKG+bNoIZjqAtbOWMYhmlhiI6cc/icCOgAAAAAAAAAAAAAAAAAAAAAAAAAAAAA==

> <PUBCHEM_IUPAC_OPENEYE_NAME>
ethyl (E,4S)-4-[[(2S,3R)-1-[(2S)-3-methyl-2-[(5-methylisoxazole-3-carbonyl)amino]butanoyl]-3-phenyl-pyrrolidine-2-carbonyl]amino]-5-[(3S)-2-oxopyrrolidin-3-yl]pent-2-enoate

> <PUBCHEM_IUPAC_CAS_NAME>
(E,4S)-4-[[[(2S,3R)-1-[(2S)-3-methyl-2-[[(5-methyl-3-isoxazolyl)-oxomethyl]amino]-1-oxobutyl]-3-phenyl-2-pyrrolidinyl]-oxomethyl]amino]-5-[(3S)-2-oxo-3-pyrrolidinyl]-2-pentenoic acid ethyl ester

> <PUBCHEM_IUPAC_NAME_MARKUP>
ethyl (<I>E</I>,4<I>S</I>)-4-[[(2<I>S</I>,3<I>R</I>)-1-[(2<I>S</I>)-3-methyl-2-[(5-methyl-1,2-oxazole-3-carbonyl)amino]butanoyl]-3-phenylpyrrolidine-2-carbonyl]amino]-5-[(3<I>S</I>)-2-oxopyrrolidin-3-yl]pent-2-enoate

> <PUBCHEM_IUPAC_NAME>
ethyl (E,4S)-4-[[(2S,3R)-1-[(2S)-3-methyl-2-[(5-methyl-1,2-oxazole-3-carbonyl)amino]butanoyl]-3-phenylpyrrolidine-2-carbonyl]amino]-5-[(3S)-2-oxopyrrolidin-3-yl]pent-2-enoate

> <PUBCHEM_IUPAC_SYSTEMATIC_NAME>
ethyl (E,4S)-4-[[(2S,3R)-1-[(2S)-3-methyl-2-[(5-methyl-1,2-oxazol-3-yl)carbonylamino]butanoyl]-3-phenyl-pyrrolidin-2-yl]carbonylamino]-5-[(3S)-2-oxidanylidenepyrrolidin-3-yl]pent-2-enoate

> <PUBCHEM_IUPAC_TRADITIONAL_NAME>
(E,4S)-5-[(3S)-2-ketopyrrolidin-3-yl]-4-[[(2S,3R)-1-[(2S)-3-methyl-2-[(5-methylisoxazole-3-carbonyl)amino]butanoyl]-3-phenyl-prolyl]amino]pent-2-enoic acid ethyl ester

> <PUBCHEM_IUPAC_INCHI>
InChI=1S/C32H41N5O7/c1-5-43-26(38)12-11-23(18-22-13-15-33-29(22)39)34-31(41)28-24(21-9-7-6-8-10-21)14-16-37(28)32(42)27(19(2)3)35-30(40)25-17-20(4)44-36-25/h6-12,17,19,22-24,27-28H,5,13-16,18H2,1-4H3,(H,33,39)(H,34,41)(H,35,40)/b12-11+/t22-,23+,24+,27-,28-/m0/s1

> <PUBCHEM_IUPAC_INCHIKEY>
RDIZZIQRWFVOSX-SCALXIMVSA-N

> <PUBCHEM_XLOGP3_AA>
2.9

> <PUBCHEM_EXACT_MASS>
607.300599

> <PUBCHEM_MOLECULAR_FORMULA>
C32H41N5O7

> <PUBCHEM_MOLECULAR_WEIGHT>
607.7

> <PUBCHEM_OPENEYE_CAN_SMILES>
CCOC(=O)C=CC(CC1CCNC1=O)NC(=O)C2C(CCN2C(=O)C(C(C)C)NC(=O)C3=NOC(=C3)C)C4=CC=CC=C4

> <PUBCHEM_OPENEYE_ISO_SMILES>
CCOC(=O)/C=C/[C@H](C[C@@H]1CCNC1=O)NC(=O)[C@@H]2[C@H](CCN2C(=O)[C@H](C(C)C)NC(=O)C3=NOC(=C3)C)C4=CC=CC=C4

> <PUBCHEM_CACTVS_TPSA>
160

> <PUBCHEM_MONOISOTOPIC_WEIGHT>
607.300599

> <PUBCHEM_TOTAL_CHARGE>
0

> <PUBCHEM_HEAVY_ATOM_COUNT>
44

> <PUBCHEM_ATOM_DEF_STEREO_COUNT>
5

> <PUBCHEM_ATOM_UDEF_STEREO_COUNT>
0

> <PUBCHEM_BOND_DEF_STEREO_COUNT>
1

> <PUBCHEM_BOND_UDEF_STEREO_COUNT>
0

> <PUBCHEM_ISOTOPIC_ATOM_COUNT>
0

> <PUBCHEM_COMPONENT_COUNT>
1

> <PUBCHEM_CACTVS_TAUTO_COUNT>
-1

> <PUBCHEM_COORDINATE_TYPE>
1
5
255

> <PUBCHEM_BONDANNOTATIONS>
20  10  5
12  38  8
13  17  6
14  18  5
17  25  8
17  26  8
22  23  5
25  33  8
26  34  8
33  35  8
34  35  8
38  40  8
40  41  8
6  12  8
6  41  8
21  9  5

$$$$
127049009
  -OEChem-02212016592D

 85 88  0     1  0  0  0  0  0999 V2000
    7.2128   -0.5567    0.0000 O   0  0  0  0  0  0  0  0  0  0  0  0
    7.0172    0.1810    0.0000 O   0  0  0  0  0  0  0  0  0  0  0  0
    9.3739    1.9036    0.0000 O   0  0  0  0  0  0  0  0  0  0  0  0
    8.3331   -3.9838    0.0000 O   0  0  0  0  0  0  0  0  0  0  0  0
    3.4013    4.0442    0.0000 O   0  0  0  0  0  0  0  0  0  0  0  0
   11.3573   -3.5119    0.0000 O   0  0  0  0  0  0  0  0  0  0  0  0
    4.9836    4.7487    0.0000 O   0  0  0  0  0  0  0  0  0  0  0  0
    5.7440   -1.4745    0.0000 N   0  0  0  0  0  0  0  0  0  0  0  0
    5.6160    1.1991    0.0000 N   0  0  0  0  0  0  0  0  0  0  0  0
    8.2727   -2.2528    0.0000 N   0  0  0  0  0  0  0  0  0  0  0  0
    9.0951    3.6636    0.0000 N   0  0  0  0  0  0  0  0  0  0  0  0
   10.4176   -3.8539    0.0000 N   0  0  0  0  0  0  0  0  0  0  0  0
    4.9349   -2.0623    0.0000 C   0  0  1  0  0  0  0  0  0  0  0  0
    5.4349   -0.5235    0.0000 C   0  0  1  0  0  0  0  0  0  0  0  0
    4.1259   -1.4745    0.0000 C   0  0  0  0  0  0  0  0  0  0  0  0
    4.4349   -0.5235    0.0000 C   0  0  0  0  0  0  0  0  0  0  0  0
    6.7434   -1.4396    0.0000 C   0  0  0  0  0  0  0  0  0  0  0  0
    4.9349   -3.0623    0.0000 C   0  0  0  0  0  0  0  0  0  0  0  0
    6.0227    0.2855    0.0000 C   0  0  0  0  0  0  0  0  0  0  0  0
    7.2733   -2.2877    0.0000 C   0  0  2  0  0  0  0  0  0  0  0  0
    6.2038    2.0081    0.0000 C   0  0  1  0  0  0  0  0  0  0  0  0
    7.7861    2.7126    0.0000 C   0  0  2  0  0  0  0  0  0  0  0  0
    7.1983    1.9036    0.0000 C   0  0  0  0  0  0  0  0  0  0  0  0
    6.5301   -2.9568    0.0000 C   0  0  0  0  0  0  0  0  0  0  0  0
    7.4771    3.6636    0.0000 C   0  0  0  0  0  0  0  0  0  0  0  0
    4.0689   -3.5623    0.0000 C   0  0  0  0  0  0  0  0  0  0  0  0
    5.8010   -3.5623    0.0000 C   0  0  0  0  0  0  0  0  0  0  0  0
    8.2861    4.2514    0.0000 C   0  0  0  0  0  0  0  0  0  0  0  0
    8.7861    2.7126    0.0000 C   0  0  0  0  0  0  0  0  0  0  0  0
    6.7381   -3.9350    0.0000 C   0  0  0  0  0  0  0  0  0  0  0  0
    5.5791   -2.6477    0.0000 C   0  0  0  0  0  0  0  0  0  0  0  0
    5.7970    2.9216    0.0000 C   0  0  0  0  0  0  0  0  0  0  0  0
    4.0689   -4.5623    0.0000 C   0  0  0  0  0  0  0  0  0  0  0  0
    5.8010   -4.5623    0.0000 C   0  0  0  0  0  0  0  0  0  0  0  0
    4.9349   -5.0623    0.0000 C   0  0  0  0  0  0  0  0  0  0  0  0
    8.8026   -3.1008    0.0000 C   0  0  0  0  0  0  0  0  0  0  0  0
    4.8025    3.0262    0.0000 C   0  0  0  0  0  0  0  0  0  0  0  0
    9.8020   -3.0659    0.0000 C   0  0  0  0  0  0  0  0  0  0  0  0
    4.3958    3.9397    0.0000 C   0  0  0  0  0  0  0  0  0  0  0  0
   10.3612   -2.2369    0.0000 C   0  0  0  0  0  0  0  0  0  0  0  0
   11.3224   -2.5125    0.0000 C   0  0  0  0  0  0  0  0  0  0  0  0
    2.9945    4.9578    0.0000 C   0  0  0  0  0  0  0  0  0  0  0  0
   12.1104   -1.8969    0.0000 C   0  0  0  0  0  0  0  0  0  0  0  0
    2.0000    5.0623    0.0000 C   0  0  0  0  0  0  0  0  0  0  0  0
    5.4874   -2.3438    0.0000 H   0  0  0  0  0  0  0  0  0  0  0  0
    6.0473   -0.6205    0.0000 H   0  0  0  0  0  0  0  0  0  0  0  0
    3.5595   -1.2224    0.0000 H   0  0  0  0  0  0  0  0  0  0  0  0
    3.8159   -2.0115    0.0000 H   0  0  0  0  0  0  0  0  0  0  0  0
    4.4998    0.0931    0.0000 H   0  0  0  0  0  0  0  0  0  0  0  0
    3.8285   -0.3946    0.0000 H   0  0  0  0  0  0  0  0  0  0  0  0
    7.5055   -2.8625    0.0000 H   0  0  0  0  0  0  0  0  0  0  0  0
    5.5872    2.0729    0.0000 H   0  0  0  0  0  0  0  0  0  0  0  0
    8.0676    2.1602    0.0000 H   0  0  0  0  0  0  0  0  0  0  0  0
    7.0274    1.3076    0.0000 H   0  0  0  0  0  0  0  0  0  0  0  0
    7.7556    1.6318    0.0000 H   0  0  0  0  0  0  0  0  0  0  0  0
    4.9994    1.2639    0.0000 H   0  0  0  0  0  0  0  0  0  0  0  0
    6.0694   -3.3717    0.0000 H   0  0  0  0  0  0  0  0  0  0  0  0
    7.1671    4.2006    0.0000 H   0  0  0  0  0  0  0  0  0  0  0  0
    6.9107    3.4115    0.0000 H   0  0  0  0  0  0  0  0  0  0  0  0
    3.5320   -3.2523    0.0000 H   0  0  0  0  0  0  0  0  0  0  0  0
    6.3379   -3.2523    0.0000 H   0  0  0  0  0  0  0  0  0  0  0  0
    8.7009    4.7122    0.0000 H   0  0  0  0  0  0  0  0  0  0  0  0
    7.8712    4.7122    0.0000 H   0  0  0  0  0  0  0  0  0  0  0  0
    8.5637   -1.7054    0.0000 H   0  0  0  0  0  0  0  0  0  0  0  0
    6.1316   -4.0639    0.0000 H   0  0  0  0  0  0  0  0  0  0  0  0
    6.8670   -4.5414    0.0000 H   0  0  0  0  0  0  0  0  0  0  0  0
    7.3445   -3.8060    0.0000 H   0  0  0  0  0  0  0  0  0  0  0  0
    5.7707   -2.0581    0.0000 H   0  0  0  0  0  0  0  0  0  0  0  0
    4.9894   -2.4561    0.0000 H   0  0  0  0  0  0  0  0  0  0  0  0
    5.3875   -3.2374    0.0000 H   0  0  0  0  0  0  0  0  0  0  0  0
    6.1615    3.4232    0.0000 H   0  0  0  0  0  0  0  0  0  0  0  0
    9.6848    3.8552    0.0000 H   0  0  0  0  0  0  0  0  0  0  0  0
    3.5320   -4.8723    0.0000 H   0  0  0  0  0  0  0  0  0  0  0  0
    6.3379   -4.8723    0.0000 H   0  0  0  0  0  0  0  0  0  0  0  0
    4.9349   -5.6823    0.0000 H   0  0  0  0  0  0  0  0  0  0  0  0
    4.4381    2.5246    0.0000 H   0  0  0  0  0  0  0  0  0  0  0  0
   10.1491   -1.6543    0.0000 H   0  0  0  0  0  0  0  0  0  0  0  0
    3.5961    5.1078    0.0000 H   0  0  0  0  0  0  0  0  0  0  0  0
    2.9513    5.5763    0.0000 H   0  0  0  0  0  0  0  0  0  0  0  0
   12.4921   -2.3854    0.0000 H   0  0  0  0  0  0  0  0  0  0  0  0
   12.5990   -1.5152    0.0000 H   0  0  0  0  0  0  0  0  0  0  0  0
   11.7287   -1.4083    0.0000 H   0  0  0  0  0  0  0  0  0  0  0  0
    2.0648    5.6789    0.0000 H   0  0  0  0  0  0  0  0  0  0  0  0
    1.3834    5.1271    0.0000 H   0  0  0  0  0  0  0  0  0  0  0  0
    1.9352    4.4457    0.0000 H   0  0  0  0  0  0  0  0  0  0  0  0
  1 17  2  0  0  0  0
  2 19  2  0  0  0  0
  3 29  2  0  0  0  0
  4 36  2  0  0  0  0
  5 39  1  0  0  0  0
  5 42  1  0  0  0  0
  6 12  1  0  0  0  0
  6 41  1  0  0  0  0
  7 39  2  0  0  0  0
  8 13  1  0  0  0  0
  8 14  1  0  0  0  0
  8 17  1  0  0  0  0
  9 19  1  0  0  0  0
 21  9  1  6  0  0  0
  9 56  1  0  0  0  0
 20 10  1  1  0  0  0
 10 36  1  0  0  0  0
 10 64  1  0  0  0  0
 11 28  1  0  0  0  0
 11 29  1  0  0  0  0
 11 72  1  0  0  0  0
 12 38  2  0  0  0  0
 13 15  1  0  0  0  0
 13 18  1  6  0  0  0
 13 45  1  0  0  0  0
 14 16  1  0  0  0  0
 14 19  1  1  0  0  0
 14 46  1  0  0  0  0
 15 16  1  0  0  0  0
 15 47  1  0  0  0  0
 15 48  1  0  0  0  0
 16 49  1  0  0  0  0
 16 50  1  0  0  0  0
 17 20  1  0  0  0  0
 18 26  2  0  0  0  0
 18 27  1  0  0  0  0
 20 24  1  0  0  0  0
 20 51  1  0  0  0  0
 21 23  1  0  0  0  0
 21 32  1  0  0  0  0
 21 52  1  0  0  0  0
 22 23  1  6  0  0  0
 22 25  1  0  0  0  0
 22 29  1  0  0  0  0
 22 53  1  0  0  0  0
 23 54  1  0  0  0  0
 23 55  1  0  0  0  0
 24 30  1  0  0  0  0
 24 31  1  0  0  0  0
 24 57  1  0  0  0  0
 25 28  1  0  0  0  0
 25 58  1  0  0  0  0
 25 59  1  0  0  0  0
 26 33  1  0  0  0  0
 26 60  1  0  0  0  0
 27 34  2  0  0  0  0
 27 61  1  0  0  0  0
 28 62  1  0  0  0  0
 28 63  1  0  0  0  0
 30 65  1  0  0  0  0
 30 66  1  0  0  0  0
 30 67  1  0  0  0  0
 31 68  1  0  0  0  0
 31 69  1  0  0  0  0
 31 70  1  0  0  0  0
 32 37  2  0  0  0  0
 32 71  1  0  0  0  0
 33 35  2  0  0  0  0
 33 73  1  0  0  0  0
 34 35  1  0  0  0  0
 34 74  1  0  0  0  0
 35 75  1  0  0  0  0
 36 38  1  0  0  0  0
 37 39  1  0  0  0  0
 37 76  1  0  0  0  0
 38 40  1  0  0  0  0
 40 41  2  0  0  0  0
 40 77  1  0  0  0  0
 41 43  1  0  0  0  0
 42 44  1  0  0  0  0
 42 78  1  0  0  0  0
 42 79  1  0  0  0  0
 43 80  1  0  0  0  0
 43 81  1  0  0  0  0
 43 82  1  0  0  0  0
 44 83  1  0  0  0  0
 44 84  1  0  0  0  0
 44 85  1  0  0  0  0
M  END
> <PUBCHEM_COMPOUND_CID>
127049009

> <PUBCHEM_COMPOUND_CANONICALIZED>
1

> <PUBCHEM_CACTVS_COMPLEXITY>
1080

> <PUBCHEM_CACTVS_HBOND_ACCEPTOR>
8

> <PUBCHEM_CACTVS_HBOND_DONOR>
3

> <PUBCHEM_CACTVS_ROTATABLE_BOND>
13

> <PUBCHEM_CACTVS_SUBSKEYS>
AAADcfB/uAAAAAAAAAAAAAAAAAAAAWLFgAAwAAAAAAAAAAABwAAAHgAUAAAADSzhngYyjJPQBACpA6XyWgCCAAAmIgAomKG+bNoIZjqAtbOWMYhmlhiI6cc/icCeAAAAAAAAAAAAAAAAAAAAAAAAAAAAAA==

> <PUBCHEM_IUPAC_OPENEYE_NAME>
ethyl (E,4S)-4-[[(2S,5S)-1-[(2S)-3-methyl-2-[(5-methylisoxazole-3-carbonyl)amino]butanoyl]-5-phenyl-pyrrolidine-2-carbonyl]amino]-5-[(3S)-2-oxopyrrolidin-3-yl]pent-2-enoate

> <PUBCHEM_IUPAC_CAS_NAME>
(E,4S)-4-[[[(2S,5S)-1-[(2S)-3-methyl-2-[[(5-methyl-3-isoxazolyl)-oxomethyl]amino]-1-oxobutyl]-5-phenyl-2-pyrrolidinyl]-oxomethyl]amino]-5-[(3S)-2-oxo-3-pyrrolidinyl]-2-pentenoic acid ethyl ester

> <PUBCHEM_IUPAC_NAME_MARKUP>
ethyl (<I>E</I>,4<I>S</I>)-4-[[(2<I>S</I>,5<I>S</I>)-1-[(2<I>S</I>)-3-methyl-2-[(5-methyl-1,2-oxazole-3-carbonyl)amino]butanoyl]-5-phenylpyrrolidine-2-carbonyl]amino]-5-[(3<I>S</I>)-2-oxopyrrolidin-3-yl]pent-2-enoate

> <PUBCHEM_IUPAC_NAME>
ethyl (E,4S)-4-[[(2S,5S)-1-[(2S)-3-methyl-2-[(5-methyl-1,2-oxazole-3-carbonyl)amino]butanoyl]-5-phenylpyrrolidine-2-carbonyl]amino]-5-[(3S)-2-oxopyrrolidin-3-yl]pent-2-enoate

> <PUBCHEM_IUPAC_SYSTEMATIC_NAME>
ethyl (E,4S)-4-[[(2S,5S)-1-[(2S)-3-methyl-2-[(5-methyl-1,2-oxazol-3-yl)carbonylamino]butanoyl]-5-phenyl-pyrrolidin-2-yl]carbonylamino]-5-[(3S)-2-oxidanylidenepyrrolidin-3-yl]pent-2-enoate

> <PUBCHEM_IUPAC_TRADITIONAL_NAME>
(E,4S)-5-[(3S)-2-ketopyrrolidin-3-yl]-4-[[(2S,5S)-1-[(2S)-3-methyl-2-[(5-methylisoxazole-3-carbonyl)amino]butanoyl]-5-phenyl-prolyl]amino]pent-2-enoic acid ethyl ester

> <PUBCHEM_IUPAC_INCHI>
InChI=1S/C32H41N5O7/c1-5-43-27(38)14-11-23(18-22-15-16-33-29(22)39)34-31(41)26-13-12-25(21-9-7-6-8-10-21)37(26)32(42)28(19(2)3)35-30(40)24-17-20(4)44-36-24/h6-11,14,17,19,22-23,25-26,28H,5,12-13,15-16,18H2,1-4H3,(H,33,39)(H,34,41)(H,35,40)/b14-11+/t22-,23+,25-,26-,28-/m0/s1

> <PUBCHEM_IUPAC_INCHIKEY>
SRAVKBAIVXTBKH-HMFOHWCYSA-N

> <PUBCHEM_XLOGP3_AA>
3

> <PUBCHEM_EXACT_MASS>
607.300599

> <PUBCHEM_MOLECULAR_FORMULA>
C32H41N5O7

> <PUBCHEM_MOLECULAR_WEIGHT>
607.7

> <PUBCHEM_OPENEYE_CAN_SMILES>
CCOC(=O)C=CC(CC1CCNC1=O)NC(=O)C2CCC(N2C(=O)C(C(C)C)NC(=O)C3=NOC(=C3)C)C4=CC=CC=C4

> <PUBCHEM_OPENEYE_ISO_SMILES>
CCOC(=O)/C=C/[C@H](C[C@@H]1CCNC1=O)NC(=O)[C@@H]2CC[C@H](N2C(=O)[C@H](C(C)C)NC(=O)C3=NOC(=C3)C)C4=CC=CC=C4

> <PUBCHEM_CACTVS_TPSA>
160

> <PUBCHEM_MONOISOTOPIC_WEIGHT>
607.300599

> <PUBCHEM_TOTAL_CHARGE>
0

> <PUBCHEM_HEAVY_ATOM_COUNT>
44

> <PUBCHEM_ATOM_DEF_STEREO_COUNT>
5

> <PUBCHEM_ATOM_UDEF_STEREO_COUNT>
0

> <PUBCHEM_BOND_DEF_STEREO_COUNT>
1

> <PUBCHEM_BOND_UDEF_STEREO_COUNT>
0

> <PUBCHEM_ISOTOPIC_ATOM_COUNT>
0

> <PUBCHEM_COMPONENT_COUNT>
1

> <PUBCHEM_CACTVS_TAUTO_COUNT>
-1

> <PUBCHEM_COORDINATE_TYPE>
1
5
255

> <PUBCHEM_BONDANNOTATIONS>
20  10  5
12  38  8
13  18  6
14  19  5
18  26  8
18  27  8
22  23  6
26  33  8
27  34  8
33  35  8
34  35  8
38  40  8
40  41  8
6  12  8
6  41  8
21  9  6

$$$$
127049319
  -OEChem-02212016592D

 88 91  0     1  0  0  0  0  0999 V2000
    6.8970    0.3861    0.0000 O   0  0  0  0  0  0  0  0  0  0  0  0
    6.2160    1.5657    0.0000 O   0  0  0  0  0  0  0  0  0  0  0  0
    9.3861   -2.5161    0.0000 O   0  0  0  0  0  0  0  0  0  0  0  0
    3.4581    3.8882    0.0000 O   0  0  0  0  0  0  0  0  0  0  0  0
    7.3484   -4.8862    0.0000 O   0  0  0  0  0  0  0  0  0  0  0  0
    5.0285    6.5155    0.0000 O   0  0  0  0  0  0  0  0  0  0  0  0
    8.9307   -4.1817    0.0000 O   0  0  0  0  0  0  0  0  0  0  0  0
    4.8147    0.5476    0.0000 N   0  0  0  0  0  0  0  0  0  0  0  0
    6.7160   -1.3365    0.0000 N   0  0  0  0  0  0  0  0  0  0  0  0
    5.0404    3.1837    0.0000 N   0  0  0  0  0  0  0  0  0  0  0  0
   10.7710   -1.3946    0.0000 N   0  0  0  0  0  0  0  0  0  0  0  0
    4.3594    5.7723    0.0000 N   0  0  0  0  0  0  0  0  0  0  0  0
    3.7320   -0.6548    0.0000 C   0  0  2  0  0  0  0  0  0  0  0  0
    5.3147   -0.3184    0.0000 C   0  0  1  0  0  0  0  0  0  0  0  0
    4.6456   -1.0616    0.0000 C   0  0  0  0  0  0  0  0  0  0  0  0
    3.8366    0.3397    0.0000 C   0  0  0  0  0  0  0  0  0  0  0  0
    2.8660   -1.1548    0.0000 C   0  0  0  0  0  0  0  0  0  0  0  0
    6.3092   -0.4229    0.0000 C   0  0  0  0  0  0  0  0  0  0  0  0
    5.2215    1.4612    0.0000 C   0  0  0  0  0  0  0  0  0  0  0  0
    4.6337    2.2702    0.0000 C   0  0  2  0  0  0  0  0  0  0  0  0
    2.8660   -2.1548    0.0000 C   0  0  0  0  0  0  0  0  0  0  0  0
    7.7105   -1.4410    0.0000 C   0  0  1  0  0  0  0  0  0  0  0  0
    3.6392    2.1656    0.0000 C   0  0  0  0  0  0  0  0  0  0  0  0
    8.2983   -0.6320    0.0000 C   0  0  0  0  0  0  0  0  0  0  0  0
    9.2928   -0.7365    0.0000 C   0  0  2  0  0  0  0  0  0  0  0  0
    9.9620    0.0066    0.0000 C   0  0  0  0  0  0  0  0  0  0  0  0
   10.8755   -0.4001    0.0000 C   0  0  0  0  0  0  0  0  0  0  0  0
    9.7928   -1.6026    0.0000 C   0  0  0  0  0  0  0  0  0  0  0  0
    2.0000   -2.6548    0.0000 C   0  0  0  0  0  0  0  0  0  0  0  0
    3.7320   -2.6548    0.0000 C   0  0  0  0  0  0  0  0  0  0  0  0
    3.0514    2.9747    0.0000 C   0  0  0  0  0  0  0  0  0  0  0  0
    3.2324    1.2521    0.0000 C   0  0  0  0  0  0  0  0  0  0  0  0
    8.1172   -2.3546    0.0000 C   0  0  0  0  0  0  0  0  0  0  0  0
    2.0000   -3.6548    0.0000 C   0  0  0  0  0  0  0  0  0  0  0  0
    3.7320   -3.6548    0.0000 C   0  0  0  0  0  0  0  0  0  0  0  0
    4.4526    3.9927    0.0000 C   0  0  0  0  0  0  0  0  0  0  0  0
    2.8660   -4.1548    0.0000 C   0  0  0  0  0  0  0  0  0  0  0  0
    7.5295   -3.1636    0.0000 C   0  0  0  0  0  0  0  0  0  0  0  0
    4.8594    4.9063    0.0000 C   0  0  0  0  0  0  0  0  0  0  0  0
    7.9362   -4.0771    0.0000 C   0  0  0  0  0  0  0  0  0  0  0  0
    5.8375    5.1142    0.0000 C   0  0  0  0  0  0  0  0  0  0  0  0
    5.9420    6.1087    0.0000 C   0  0  0  0  0  0  0  0  0  0  0  0
    6.8081    6.6087    0.0000 C   0  0  0  0  0  0  0  0  0  0  0  0
    7.7552   -5.7997    0.0000 C   0  0  0  0  0  0  0  0  0  0  0  0
    7.1674   -6.6087    0.0000 C   0  0  0  0  0  0  0  0  0  0  0  0
    3.7645   -1.2740    0.0000 H   0  0  0  0  0  0  0  0  0  0  0  0
    5.6524    0.2016    0.0000 H   0  0  0  0  0  0  0  0  0  0  0  0
    4.3356   -1.5985    0.0000 H   0  0  0  0  0  0  0  0  0  0  0  0
    5.1472   -1.4260    0.0000 H   0  0  0  0  0  0  0  0  0  0  0  0
    3.7718    0.9563    0.0000 H   0  0  0  0  0  0  0  0  0  0  0  0
    3.2166    0.3397    0.0000 H   0  0  0  0  0  0  0  0  0  0  0  0
    2.6540   -0.5722    0.0000 H   0  0  0  0  0  0  0  0  0  0  0  0
    2.2554   -1.2625    0.0000 H   0  0  0  0  0  0  0  0  0  0  0  0
    5.2503    2.3350    0.0000 H   0  0  0  0  0  0  0  0  0  0  0  0
    7.4583   -0.8746    0.0000 H   0  0  0  0  0  0  0  0  0  0  0  0
    6.3516   -1.8381    0.0000 H   0  0  0  0  0  0  0  0  0  0  0  0
    3.8913    2.7320    0.0000 H   0  0  0  0  0  0  0  0  0  0  0  0
    8.4692   -0.0360    0.0000 H   0  0  0  0  0  0  0  0  0  0  0  0
    7.7410   -0.3602    0.0000 H   0  0  0  0  0  0  0  0  0  0  0  0
    9.0706   -0.1577    0.0000 H   0  0  0  0  0  0  0  0  0  0  0  0
   10.2719    0.5435    0.0000 H   0  0  0  0  0  0  0  0  0  0  0  0
    9.4604    0.3710    0.0000 H   0  0  0  0  0  0  0  0  0  0  0  0
    5.6570    3.2485    0.0000 H   0  0  0  0  0  0  0  0  0  0  0  0
   11.4819   -0.5290    0.0000 H   0  0  0  0  0  0  0  0  0  0  0  0
   11.0671    0.1895    0.0000 H   0  0  0  0  0  0  0  0  0  0  0  0
    1.4631   -2.3448    0.0000 H   0  0  0  0  0  0  0  0  0  0  0  0
    4.2690   -2.3448    0.0000 H   0  0  0  0  0  0  0  0  0  0  0  0
    3.5530    3.3391    0.0000 H   0  0  0  0  0  0  0  0  0  0  0  0
    2.6869    3.4762    0.0000 H   0  0  0  0  0  0  0  0  0  0  0  0
    2.5498    2.6102    0.0000 H   0  0  0  0  0  0  0  0  0  0  0  0
    2.6660    1.5043    0.0000 H   0  0  0  0  0  0  0  0  0  0  0  0
    2.9802    0.6857    0.0000 H   0  0  0  0  0  0  0  0  0  0  0  0
    3.7988    0.9999    0.0000 H   0  0  0  0  0  0  0  0  0  0  0  0
    8.7338   -2.4194    0.0000 H   0  0  0  0  0  0  0  0  0  0  0  0
   11.2317   -1.8095    0.0000 H   0  0  0  0  0  0  0  0  0  0  0  0
    1.4631   -3.9648    0.0000 H   0  0  0  0  0  0  0  0  0  0  0  0
    4.2690   -3.9648    0.0000 H   0  0  0  0  0  0  0  0  0  0  0  0
    2.8660   -4.7748    0.0000 H   0  0  0  0  0  0  0  0  0  0  0  0
    6.9129   -3.0988    0.0000 H   0  0  0  0  0  0  0  0  0  0  0  0
    6.2983    4.6993    0.0000 H   0  0  0  0  0  0  0  0  0  0  0  0
    8.1858   -6.2457    0.0000 H   0  0  0  0  0  0  0  0  0  0  0  0
    8.2692   -5.4530    0.0000 H   0  0  0  0  0  0  0  0  0  0  0  0
    7.1181    6.0718    0.0000 H   0  0  0  0  0  0  0  0  0  0  0  0
    7.3450    6.9187    0.0000 H   0  0  0  0  0  0  0  0  0  0  0  0
    6.4981    7.1456    0.0000 H   0  0  0  0  0  0  0  0  0  0  0  0
    6.6658   -6.2443    0.0000 H   0  0  0  0  0  0  0  0  0  0  0  0
    6.8029   -7.1103    0.0000 H   0  0  0  0  0  0  0  0  0  0  0  0
    7.6690   -6.9731    0.0000 H   0  0  0  0  0  0  0  0  0  0  0  0
  1 18  2  0  0  0  0
  2 19  2  0  0  0  0
  3 28  2  0  0  0  0
  4 36  2  0  0  0  0
  5 40  1  0  0  0  0
  5 44  1  0  0  0  0
  6 12  1  0  0  0  0
  6 42  1  0  0  0  0
  7 40  2  0  0  0  0
  8 14  1  0  0  0  0
  8 16  1  0  0  0  0
  8 19  1  0  0  0  0
  9 18  1  0  0  0  0
 22  9  1  1  0  0  0
  9 56  1  0  0  0  0
 20 10  1  6  0  0  0
 10 36  1  0  0  0  0
 10 63  1  0  0  0  0
 11 27  1  0  0  0  0
 11 28  1  0  0  0  0
 11 75  1  0  0  0  0
 12 39  2  0  0  0  0
 13 15  1  0  0  0  0
 13 16  1  0  0  0  0
 13 17  1  1  0  0  0
 13 46  1  0  0  0  0
 14 15  1  0  0  0  0
 14 18  1  6  0  0  0
 14 47  1  0  0  0  0
 15 48  1  0  0  0  0
 15 49  1  0  0  0  0
 16 50  1  0  0  0  0
 16 51  1  0  0  0  0
 17 21  1  0  0  0  0
 17 52  1  0  0  0  0
 17 53  1  0  0  0  0
 19 20  1  0  0  0  0
 20 23  1  0  0  0  0
 20 54  1  0  0  0  0
 21 29  2  0  0  0  0
 21 30  1  0  0  0  0
 22 24  1  0  0  0  0
 22 33  1  0  0  0  0
 22 55  1  0  0  0  0
 23 31  1  0  0  0  0
 23 32  1  0  0  0  0
 23 57  1  0  0  0  0
 25 24  1  6  0  0  0
 24 58  1  0  0  0  0
 24 59  1  0  0  0  0
 25 26  1  0  0  0  0
 25 28  1  0  0  0  0
 25 60  1  0  0  0  0
 26 27  1  0  0  0  0
 26 61  1  0  0  0  0
 26 62  1  0  0  0  0
 27 64  1  0  0  0  0
 27 65  1  0  0  0  0
 29 34  1  0  0  0  0
 29 66  1  0  0  0  0
 30 35  2  0  0  0  0
 30 67  1  0  0  0  0
 31 68  1  0  0  0  0
 31 69  1  0  0  0  0
 31 70  1  0  0  0  0
 32 71  1  0  0  0  0
 32 72  1  0  0  0  0
 32 73  1  0  0  0  0
 33 38  2  0  0  0  0
 33 74  1  0  0  0  0
 34 37  2  0  0  0  0
 34 76  1  0  0  0  0
 35 37  1  0  0  0  0
 35 77  1  0  0  0  0
 36 39  1  0  0  0  0
 37 78  1  0  0  0  0
 38 40  1  0  0  0  0
 38 79  1  0  0  0  0
 39 41  1  0  0  0  0
 41 42  2  0  0  0  0
 41 80  1  0  0  0  0
 42 43  1  0  0  0  0
 43 83  1  0  0  0  0
 43 84  1  0  0  0  0
 43 85  1  0  0  0  0
 44 45  1  0  0  0  0
 44 81  1  0  0  0  0
 44 82  1  0  0  0  0
 45 86  1  0  0  0  0
 45 87  1  0  0  0  0
 45 88  1  0  0  0  0
M  END
> <PUBCHEM_COMPOUND_CID>
127049319

> <PUBCHEM_COMPOUND_CANONICALIZED>
1

> <PUBCHEM_CACTVS_COMPLEXITY>
1090

> <PUBCHEM_CACTVS_HBOND_ACCEPTOR>
8

> <PUBCHEM_CACTVS_HBOND_DONOR>
3

> <PUBCHEM_CACTVS_ROTATABLE_BOND>
14

> <PUBCHEM_CACTVS_SUBSKEYS>
AAADcfB/uAAAAAAAAAAAAAAAAAAAAWLFgAAwAAAAAAAAAAABwAAAHgAUAAAADSzhngYyjJPQBACpA6XyWgCCAAAmIgAomKG+bNoIZjqAtbOWMYhmlhiI6cc/icCOAAAAAAAAAAAAAAAAAAAAAAAAAAAAAA==

> <PUBCHEM_IUPAC_OPENEYE_NAME>
ethyl (E,4S)-4-[[(2S,4R)-4-benzyl-1-[(2S)-3-methyl-2-[(5-methylisoxazole-3-carbonyl)amino]butanoyl]pyrrolidine-2-carbonyl]amino]-5-[(3S)-2-oxopyrrolidin-3-yl]pent-2-enoate

> <PUBCHEM_IUPAC_CAS_NAME>
(E,4S)-4-[[[(2S,4R)-1-[(2S)-3-methyl-2-[[(5-methyl-3-isoxazolyl)-oxomethyl]amino]-1-oxobutyl]-4-(phenylmethyl)-2-pyrrolidinyl]-oxomethyl]amino]-5-[(3S)-2-oxo-3-pyrrolidinyl]-2-pentenoic acid ethyl ester

> <PUBCHEM_IUPAC_NAME_MARKUP>
ethyl (<I>E</I>,4<I>S</I>)-4-[[(2<I>S</I>,4<I>R</I>)-4-benzyl-1-[(2<I>S</I>)-3-methyl-2-[(5-methyl-1,2-oxazole-3-carbonyl)amino]butanoyl]pyrrolidine-2-carbonyl]amino]-5-[(3<I>S</I>)-2-oxopyrrolidin-3-yl]pent-2-enoate

> <PUBCHEM_IUPAC_NAME>
ethyl (E,4S)-4-[[(2S,4R)-4-benzyl-1-[(2S)-3-methyl-2-[(5-methyl-1,2-oxazole-3-carbonyl)amino]butanoyl]pyrrolidine-2-carbonyl]amino]-5-[(3S)-2-oxopyrrolidin-3-yl]pent-2-enoate

> <PUBCHEM_IUPAC_SYSTEMATIC_NAME>
ethyl (E,4S)-4-[[(2S,4R)-1-[(2S)-3-methyl-2-[(5-methyl-1,2-oxazol-3-yl)carbonylamino]butanoyl]-4-(phenylmethyl)pyrrolidin-2-yl]carbonylamino]-5-[(3S)-2-oxidanylidenepyrrolidin-3-yl]pent-2-enoate

> <PUBCHEM_IUPAC_TRADITIONAL_NAME>
(E,4S)-4-[[(2S,4R)-4-benzyl-1-[(2S)-3-methyl-2-[(5-methylisoxazole-3-carbonyl)amino]butanoyl]prolyl]amino]-5-[(3S)-2-ketopyrrolidin-3-yl]pent-2-enoic acid ethyl ester

> <PUBCHEM_IUPAC_INCHI>
InChI=1S/C33H43N5O7/c1-5-44-28(39)12-11-25(18-24-13-14-34-30(24)40)35-32(42)27-17-23(16-22-9-7-6-8-10-22)19-38(27)33(43)29(20(2)3)36-31(41)26-15-21(4)45-37-26/h6-12,15,20,23-25,27,29H,5,13-14,16-19H2,1-4H3,(H,34,40)(H,35,42)(H,36,41)/b12-11+/t23-,24+,25-,27+,29+/m1/s1

> <PUBCHEM_IUPAC_INCHIKEY>
KFHXWTPLVGYQTM-NBLOEBRGSA-N

> <PUBCHEM_XLOGP3_AA>
3.3

> <PUBCHEM_EXACT_MASS>
621.316249

> <PUBCHEM_MOLECULAR_FORMULA>
C33H43N5O7

> <PUBCHEM_MOLECULAR_WEIGHT>
621.7

> <PUBCHEM_OPENEYE_CAN_SMILES>
CCOC(=O)C=CC(CC1CCNC1=O)NC(=O)C2CC(CN2C(=O)C(C(C)C)NC(=O)C3=NOC(=C3)C)CC4=CC=CC=C4

> <PUBCHEM_OPENEYE_ISO_SMILES>
CCOC(=O)/C=C/[C@H](C[C@@H]1CCNC1=O)NC(=O)[C@@H]2C[C@H](CN2C(=O)[C@H](C(C)C)NC(=O)C3=NOC(=C3)C)CC4=CC=CC=C4

> <PUBCHEM_CACTVS_TPSA>
160

> <PUBCHEM_MONOISOTOPIC_WEIGHT>
621.316249

> <PUBCHEM_TOTAL_CHARGE>
0

> <PUBCHEM_HEAVY_ATOM_COUNT>
45

> <PUBCHEM_ATOM_DEF_STEREO_COUNT>
5

> <PUBCHEM_ATOM_UDEF_STEREO_COUNT>
0

> <PUBCHEM_BOND_DEF_STEREO_COUNT>
1

> <PUBCHEM_BOND_UDEF_STEREO_COUNT>
0

> <PUBCHEM_ISOTOPIC_ATOM_COUNT>
0

> <PUBCHEM_COMPONENT_COUNT>
1

> <PUBCHEM_CACTVS_TAUTO_COUNT>
-1

> <PUBCHEM_COORDINATE_TYPE>
1
5
255

> <PUBCHEM_BONDANNOTATIONS>
20  10  6
12  39  8
13  17  5
14  18  6
21  29  8
21  30  8
25  24  6
29  34  8
30  35  8
34  37  8
35  37  8
39  41  8
41  42  8
6  12  8
6  42  8
22  9  5

$$$$
127050863
  -OEChem-02212016592D

 85 88  0     1  0  0  0  0  0999 V2000
    8.1928    1.6045    0.0000 O   0  0  0  0  0  0  0  0  0  0  0  0
    9.5549    1.6045    0.0000 O   0  0  0  0  0  0  0  0  0  0  0  0
    4.4349    2.3090    0.0000 O   0  0  0  0  0  0  0  0  0  0  0  0
   12.9452    0.3774    0.0000 O   0  0  0  0  0  0  0  0  0  0  0  0
    3.4013   -0.6407    0.0000 O   0  0  0  0  0  0  0  0  0  0  0  0
   14.4353    3.0510    0.0000 O   0  0  0  0  0  0  0  0  0  0  0  0
    3.2202    1.0819    0.0000 O   0  0  0  0  0  0  0  0  0  0  0  0
    9.3739   -0.1180    0.0000 N   0  0  0  0  0  0  0  0  0  0  0  0
    6.7916    0.5865    0.0000 N   0  0  0  0  0  0  0  0  0  0  0  0
   11.5440    1.3955    0.0000 N   0  0  0  0  0  0  0  0  0  0  0  0
    4.7137    4.0691    0.0000 N   0  0  0  0  0  0  0  0  0  0  0  0
   14.1263    2.1000    0.0000 N   0  0  0  0  0  0  0  0  0  0  0  0
    8.8739   -1.6569    0.0000 C   0  0  2  0  0  0  0  0  0  0  0  0
    8.3739   -0.1180    0.0000 C   0  0  1  0  0  0  0  0  0  0  0  0
    8.0648   -1.0691    0.0000 C   0  0  0  0  0  0  0  0  0  0  0  0
    9.6829   -1.0691    0.0000 C   0  0  0  0  0  0  0  0  0  0  0  0
    8.8739   -2.6569    0.0000 C   0  0  0  0  0  0  0  0  0  0  0  0
    7.7861    0.6910    0.0000 C   0  0  0  0  0  0  0  0  0  0  0  0
    9.9616    0.6910    0.0000 C   0  0  0  0  0  0  0  0  0  0  0  0
   10.9562    0.5865    0.0000 C   0  0  2  0  0  0  0  0  0  0  0  0
    6.2038    1.3955    0.0000 C   0  0  1  0  0  0  0  0  0  0  0  0
    6.0227    3.1180    0.0000 C   0  0  2  0  0  0  0  0  0  0  0  0
    6.6105    2.3090    0.0000 C   0  0  0  0  0  0  0  0  0  0  0  0
   11.3629   -0.3271    0.0000 C   0  0  0  0  0  0  0  0  0  0  0  0
    6.3317    4.0691    0.0000 C   0  0  0  0  0  0  0  0  0  0  0  0
    8.0078   -3.1569    0.0000 C   0  0  0  0  0  0  0  0  0  0  0  0
    9.7399   -3.1569    0.0000 C   0  0  0  0  0  0  0  0  0  0  0  0
    5.5227    4.6569    0.0000 C   0  0  0  0  0  0  0  0  0  0  0  0
    5.0227    3.1180    0.0000 C   0  0  0  0  0  0  0  0  0  0  0  0
    5.2092    1.2909    0.0000 C   0  0  0  0  0  0  0  0  0  0  0  0
   12.3574   -0.4316    0.0000 C   0  0  0  0  0  0  0  0  0  0  0  0
   10.7751   -1.1361    0.0000 C   0  0  0  0  0  0  0  0  0  0  0  0
    8.0078   -4.1569    0.0000 C   0  0  0  0  0  0  0  0  0  0  0  0
    9.7399   -4.1569    0.0000 C   0  0  0  0  0  0  0  0  0  0  0  0
    8.8739   -4.6569    0.0000 C   0  0  0  0  0  0  0  0  0  0  0  0
   12.5385    1.2909    0.0000 C   0  0  0  0  0  0  0  0  0  0  0  0
    4.8025    0.3774    0.0000 C   0  0  0  0  0  0  0  0  0  0  0  0
   13.1263    2.1000    0.0000 C   0  0  0  0  0  0  0  0  0  0  0  0
    3.8080    0.2729    0.0000 C   0  0  0  0  0  0  0  0  0  0  0  0
   12.8173    3.0510    0.0000 C   0  0  0  0  0  0  0  0  0  0  0  0
   13.6263    3.6388    0.0000 C   0  0  0  0  0  0  0  0  0  0  0  0
    2.4067   -0.7452    0.0000 C   0  0  0  0  0  0  0  0  0  0  0  0
   13.6263    4.6388    0.0000 C   0  0  0  0  0  0  0  0  0  0  0  0
    2.0000   -1.6588    0.0000 C   0  0  0  0  0  0  0  0  0  0  0  0
    9.4263   -1.9384    0.0000 H   0  0  0  0  0  0  0  0  0  0  0  0
    8.6553    0.4344    0.0000 H   0  0  0  0  0  0  0  0  0  0  0  0
    7.4984   -0.8169    0.0000 H   0  0  0  0  0  0  0  0  0  0  0  0
    7.7548   -1.6060    0.0000 H   0  0  0  0  0  0  0  0  0  0  0  0
    9.9929   -1.6060    0.0000 H   0  0  0  0  0  0  0  0  0  0  0  0
   10.2493   -0.8169    0.0000 H   0  0  0  0  0  0  0  0  0  0  0  0
   10.7040    1.1528    0.0000 H   0  0  0  0  0  0  0  0  0  0  0  0
    5.9516    0.8291    0.0000 H   0  0  0  0  0  0  0  0  0  0  0  0
    5.7412    2.5656    0.0000 H   0  0  0  0  0  0  0  0  0  0  0  0
    7.1245    1.9623    0.0000 H   0  0  0  0  0  0  0  0  0  0  0  0
    7.0412    2.7550    0.0000 H   0  0  0  0  0  0  0  0  0  0  0  0
    6.5394    0.0201    0.0000 H   0  0  0  0  0  0  0  0  0  0  0  0
   11.7273    0.1745    0.0000 H   0  0  0  0  0  0  0  0  0  0  0  0
    6.8981    3.8169    0.0000 H   0  0  0  0  0  0  0  0  0  0  0  0
    6.6417    4.6060    0.0000 H   0  0  0  0  0  0  0  0  0  0  0  0
    7.4709   -2.8469    0.0000 H   0  0  0  0  0  0  0  0  0  0  0  0
   10.2768   -2.8469    0.0000 H   0  0  0  0  0  0  0  0  0  0  0  0
    5.9376    5.1176    0.0000 H   0  0  0  0  0  0  0  0  0  0  0  0
    5.1079    5.1176    0.0000 H   0  0  0  0  0  0  0  0  0  0  0  0
   11.2918    1.9619    0.0000 H   0  0  0  0  0  0  0  0  0  0  0  0
    4.8448    1.7925    0.0000 H   0  0  0  0  0  0  0  0  0  0  0  0
   12.2926   -1.0482    0.0000 H   0  0  0  0  0  0  0  0  0  0  0  0
   12.9740   -0.4964    0.0000 H   0  0  0  0  0  0  0  0  0  0  0  0
   12.4222    0.1850    0.0000 H   0  0  0  0  0  0  0  0  0  0  0  0
   10.2735   -0.7717    0.0000 H   0  0  0  0  0  0  0  0  0  0  0  0
   10.4107   -1.6377    0.0000 H   0  0  0  0  0  0  0  0  0  0  0  0
   11.2767   -1.5005    0.0000 H   0  0  0  0  0  0  0  0  0  0  0  0
    4.1241    4.2607    0.0000 H   0  0  0  0  0  0  0  0  0  0  0  0
    7.4709   -4.4669    0.0000 H   0  0  0  0  0  0  0  0  0  0  0  0
   10.2768   -4.4669    0.0000 H   0  0  0  0  0  0  0  0  0  0  0  0
    8.8739   -5.2769    0.0000 H   0  0  0  0  0  0  0  0  0  0  0  0
    5.1669   -0.1242    0.0000 H   0  0  0  0  0  0  0  0  0  0  0  0
   12.2276    3.2426    0.0000 H   0  0  0  0  0  0  0  0  0  0  0  0
    2.4500   -0.1267    0.0000 H   0  0  0  0  0  0  0  0  0  0  0  0
    1.8052   -0.5952    0.0000 H   0  0  0  0  0  0  0  0  0  0  0  0
   14.2463    4.6388    0.0000 H   0  0  0  0  0  0  0  0  0  0  0  0
   13.6263    5.2588    0.0000 H   0  0  0  0  0  0  0  0  0  0  0  0
   13.0063    4.6388    0.0000 H   0  0  0  0  0  0  0  0  0  0  0  0
    1.4336   -1.4066    0.0000 H   0  0  0  0  0  0  0  0  0  0  0  0
    1.7478   -2.2252    0.0000 H   0  0  0  0  0  0  0  0  0  0  0  0
    2.5664   -1.9109    0.0000 H   0  0  0  0  0  0  0  0  0  0  0  0
  1 18  2  0  0  0  0
  2 19  2  0  0  0  0
  3 29  2  0  0  0  0
  4 36  2  0  0  0  0
  5 39  1  0  0  0  0
  5 42  1  0  0  0  0
  6 12  1  0  0  0  0
  6 41  1  0  0  0  0
  7 39  2  0  0  0  0
  8 14  1  0  0  0  0
  8 16  1  0  0  0  0
  8 19  1  0  0  0  0
  9 18  1  0  0  0  0
 21  9  1  6  0  0  0
  9 56  1  0  0  0  0
 20 10  1  1  0  0  0
 10 36  1  0  0  0  0
 10 64  1  0  0  0  0
 11 28  1  0  0  0  0
 11 29  1  0  0  0  0
 11 72  1  0  0  0  0
 12 38  2  0  0  0  0
 13 15  1  0  0  0  0
 13 16  1  0  0  0  0
 13 17  1  6  0  0  0
 13 45  1  0  0  0  0
 14 15  1  0  0  0  0
 14 18  1  1  0  0  0
 14 46  1  0  0  0  0
 15 47  1  0  0  0  0
 15 48  1  0  0  0  0
 16 49  1  0  0  0  0
 16 50  1  0  0  0  0
 17 26  2  0  0  0  0
 17 27  1  0  0  0  0
 19 20  1  0  0  0  0
 20 24  1  0  0  0  0
 20 51  1  0  0  0  0
 21 23  1  0  0  0  0
 21 30  1  0  0  0  0
 21 52  1  0  0  0  0
 22 23  1  1  0  0  0
 22 25  1  0  0  0  0
 22 29  1  0  0  0  0
 22 53  1  0  0  0  0
 23 54  1  0  0  0  0
 23 55  1  0  0  0  0
 24 31  1  0  0  0  0
 24 32  1  0  0  0  0
 24 57  1  0  0  0  0
 25 28  1  0  0  0  0
 25 58  1  0  0  0  0
 25 59  1  0  0  0  0
 26 33  1  0  0  0  0
 26 60  1  0  0  0  0
 27 34  2  0  0  0  0
 27 61  1  0  0  0  0
 28 62  1  0  0  0  0
 28 63  1  0  0  0  0
 30 37  2  0  0  0  0
 30 65  1  0  0  0  0
 31 66  1  0  0  0  0
 31 67  1  0  0  0  0
 31 68  1  0  0  0  0
 32 69  1  0  0  0  0
 32 70  1  0  0  0  0
 32 71  1  0  0  0  0
 33 35  2  0  0  0  0
 33 73  1  0  0  0  0
 34 35  1  0  0  0  0
 34 74  1  0  0  0  0
 35 75  1  0  0  0  0
 36 38  1  0  0  0  0
 37 39  1  0  0  0  0
 37 76  1  0  0  0  0
 38 40  1  0  0  0  0
 40 41  2  0  0  0  0
 40 77  1  0  0  0  0
 41 43  1  0  0  0  0
 42 44  1  0  0  0  0
 42 78  1  0  0  0  0
 42 79  1  0  0  0  0
 43 80  1  0  0  0  0
 43 81  1  0  0  0  0
 43 82  1  0  0  0  0
 44 83  1  0  0  0  0
 44 84  1  0  0  0  0
 44 85  1  0  0  0  0
M  END
> <PUBCHEM_COMPOUND_CID>
127050863

> <PUBCHEM_COMPOUND_CANONICALIZED>
1

> <PUBCHEM_CACTVS_COMPLEXITY>
1080

> <PUBCHEM_CACTVS_HBOND_ACCEPTOR>
8

> <PUBCHEM_CACTVS_HBOND_DONOR>
3

> <PUBCHEM_CACTVS_ROTATABLE_BOND>
13

> <PUBCHEM_CACTVS_SUBSKEYS>
AAADcfB/uAAAAAAAAAAAAAAAAAAAAWLFgAAwAAAAAAAAAAABwAAAHgAUAAAADSzhngYyjJPQBACpA6XyWgCCAAAmIgAomKG+bNoIZjqAtbOWMYhmlhiI6cc/icCOgAAAAAAAAAAAAAAAAAAAAAAAAAAAAA==

> <PUBCHEM_IUPAC_OPENEYE_NAME>
ethyl (E,4S)-4-[[(2S,4S)-1-[(2S)-3-methyl-2-[(5-methylisoxazole-3-carbonyl)amino]butanoyl]-4-phenyl-pyrrolidine-2-carbonyl]amino]-5-[(3S)-2-oxopyrrolidin-3-yl]pent-2-enoate

> <PUBCHEM_IUPAC_CAS_NAME>
(E,4S)-4-[[[(2S,4S)-1-[(2S)-3-methyl-2-[[(5-methyl-3-isoxazolyl)-oxomethyl]amino]-1-oxobutyl]-4-phenyl-2-pyrrolidinyl]-oxomethyl]amino]-5-[(3S)-2-oxo-3-pyrrolidinyl]-2-pentenoic acid ethyl ester

> <PUBCHEM_IUPAC_NAME_MARKUP>
ethyl (<I>E</I>,4<I>S</I>)-4-[[(2<I>S</I>,4<I>S</I>)-1-[(2<I>S</I>)-3-methyl-2-[(5-methyl-1,2-oxazole-3-carbonyl)amino]butanoyl]-4-phenylpyrrolidine-2-carbonyl]amino]-5-[(3<I>S</I>)-2-oxopyrrolidin-3-yl]pent-2-enoate

> <PUBCHEM_IUPAC_NAME>
ethyl (E,4S)-4-[[(2S,4S)-1-[(2S)-3-methyl-2-[(5-methyl-1,2-oxazole-3-carbonyl)amino]butanoyl]-4-phenylpyrrolidine-2-carbonyl]amino]-5-[(3S)-2-oxopyrrolidin-3-yl]pent-2-enoate

> <PUBCHEM_IUPAC_SYSTEMATIC_NAME>
ethyl (E,4S)-4-[[(2S,4S)-1-[(2S)-3-methyl-2-[(5-methyl-1,2-oxazol-3-yl)carbonylamino]butanoyl]-4-phenyl-pyrrolidin-2-yl]carbonylamino]-5-[(3S)-2-oxidanylidenepyrrolidin-3-yl]pent-2-enoate

> <PUBCHEM_IUPAC_TRADITIONAL_NAME>
(E,4S)-5-[(3S)-2-ketopyrrolidin-3-yl]-4-[[(2S,4S)-1-[(2S)-3-methyl-2-[(5-methylisoxazole-3-carbonyl)amino]butanoyl]-4-phenyl-prolyl]amino]pent-2-enoic acid ethyl ester

> <PUBCHEM_IUPAC_INCHI>
InChI=1S/C32H41N5O7/c1-5-43-27(38)12-11-24(16-22-13-14-33-29(22)39)34-31(41)26-17-23(21-9-7-6-8-10-21)18-37(26)32(42)28(19(2)3)35-30(40)25-15-20(4)44-36-25/h6-12,15,19,22-24,26,28H,5,13-14,16-18H2,1-4H3,(H,33,39)(H,34,41)(H,35,40)/b12-11+/t22-,23+,24+,26-,28-/m0/s1

> <PUBCHEM_IUPAC_INCHIKEY>
VCJQXVXLWGUJTC-UTCKAQIRSA-N

> <PUBCHEM_XLOGP3_AA>
2.9

> <PUBCHEM_EXACT_MASS>
607.300599

> <PUBCHEM_MOLECULAR_FORMULA>
C32H41N5O7

> <PUBCHEM_MOLECULAR_WEIGHT>
607.7

> <PUBCHEM_OPENEYE_CAN_SMILES>
CCOC(=O)C=CC(CC1CCNC1=O)NC(=O)C2CC(CN2C(=O)C(C(C)C)NC(=O)C3=NOC(=C3)C)C4=CC=CC=C4

> <PUBCHEM_OPENEYE_ISO_SMILES>
CCOC(=O)/C=C/[C@H](C[C@@H]1CCNC1=O)NC(=O)[C@@H]2C[C@H](CN2C(=O)[C@H](C(C)C)NC(=O)C3=NOC(=C3)C)C4=CC=CC=C4

> <PUBCHEM_CACTVS_TPSA>
160

> <PUBCHEM_MONOISOTOPIC_WEIGHT>
607.300599

> <PUBCHEM_TOTAL_CHARGE>
0

> <PUBCHEM_HEAVY_ATOM_COUNT>
44

> <PUBCHEM_ATOM_DEF_STEREO_COUNT>
5

> <PUBCHEM_ATOM_UDEF_STEREO_COUNT>
0

> <PUBCHEM_BOND_DEF_STEREO_COUNT>
1

> <PUBCHEM_BOND_UDEF_STEREO_COUNT>
0

> <PUBCHEM_ISOTOPIC_ATOM_COUNT>
0

> <PUBCHEM_COMPONENT_COUNT>
1

> <PUBCHEM_CACTVS_TAUTO_COUNT>
-1

> <PUBCHEM_COORDINATE_TYPE>
1
5
255

> <PUBCHEM_BONDANNOTATIONS>
20  10  5
12  38  8
13  17  6
14  18  5
17  26  8
17  27  8
22  23  5
26  33  8
27  34  8
33  35  8
34  35  8
38  40  8
40  41  8
6  12  8
6  41  8
21  9  6

$$$$
127051807
  -OEChem-02212016592D

 89 92  0     1  0  0  0  0  0999 V2000
    6.3301   -6.0000    0.0000 F   0  0  0  0  0  0  0  0  0  0  0  0
    8.9562    2.7788    0.0000 O   0  0  0  0  0  0  0  0  0  0  0  0
    8.0622    0.0000    0.0000 O   0  0  0  0  0  0  0  0  0  0  0  0
    8.9282   -0.5000    0.0000 O   0  0  0  0  0  0  0  0  0  0  0  0
    3.7320    2.5000    0.0000 O   0  0  0  0  0  0  0  0  0  0  0  0
   11.5263   -3.0000    0.0000 O   0  0  0  0  0  0  0  0  0  0  0  0
    2.8660    1.0000    0.0000 O   0  0  0  0  0  0  0  0  0  0  0  0
   13.4750   -0.2976    0.0000 O   0  0  0  0  0  0  0  0  0  0  0  0
    7.6962    4.0388    0.0000 N   0  0  0  0  0  0  0  0  0  0  0  0
    6.3301    0.0000    0.0000 N   0  0  0  0  0  0  0  0  0  0  0  0
   10.6603   -1.5000    0.0000 N   0  0  0  0  0  0  0  0  0  0  0  0
   12.4968   -0.5055    0.0000 N   0  0  0  0  0  0  0  0  0  0  0  0
    7.1962    2.5000    0.0000 C   0  0  2  0  0  0  0  0  0  0  0  0
    7.1962    1.5000    0.0000 C   0  0  0  0  0  0  0  0  0  0  0  0
    6.3871    3.0878    0.0000 C   0  0  0  0  0  0  0  0  0  0  0  0
    6.3301    1.0000    0.0000 C   0  0  1  0  0  0  0  0  0  0  0  0
    6.6962    4.0388    0.0000 C   0  0  0  0  0  0  0  0  0  0  0  0
    8.0052    3.0878    0.0000 C   0  0  0  0  0  0  0  0  0  0  0  0
    7.1962   -1.5000    0.0000 C   0  0  2  0  0  0  0  0  0  0  0  0
    8.0622   -2.0000    0.0000 C   0  0  0  0  0  0  0  0  0  0  0  0
    7.1962   -0.5000    0.0000 C   0  0  0  0  0  0  0  0  0  0  0  0
    9.7942   -2.0000    0.0000 C   0  0  2  0  0  0  0  0  0  0  0  0
    6.3301   -2.0000    0.0000 C   0  0  0  0  0  0  0  0  0  0  0  0
    5.4641    1.5000    0.0000 C   0  0  0  0  0  0  0  0  0  0  0  0
    8.9282   -1.5000    0.0000 C   0  0  0  0  0  0  0  0  0  0  0  0
    9.7942   -3.0000    0.0000 C   0  0  0  0  0  0  0  0  0  0  0  0
    6.3301   -3.0000    0.0000 C   0  0  0  0  0  0  0  0  0  0  0  0
   10.6603   -3.5000    0.0000 C   0  0  0  0  0  0  0  0  0  0  0  0
    8.9282   -3.5000    0.0000 C   0  0  0  0  0  0  0  0  0  0  0  0
    4.5981    1.0000    0.0000 C   0  0  0  0  0  0  0  0  0  0  0  0
    7.1962   -3.5000    0.0000 C   0  0  0  0  0  0  0  0  0  0  0  0
    5.4641   -3.5000    0.0000 C   0  0  0  0  0  0  0  0  0  0  0  0
   11.5263   -2.0000    0.0000 C   0  0  0  0  0  0  0  0  0  0  0  0
    3.7320    1.5000    0.0000 C   0  0  0  0  0  0  0  0  0  0  0  0
    7.1962   -4.5000    0.0000 C   0  0  0  0  0  0  0  0  0  0  0  0
    5.4641   -4.5000    0.0000 C   0  0  0  0  0  0  0  0  0  0  0  0
    6.3301   -5.0000    0.0000 C   0  0  0  0  0  0  0  0  0  0  0  0
   12.3923   -1.5000    0.0000 C   0  0  0  0  0  0  0  0  0  0  0  0
   13.3059   -1.9067    0.0000 C   0  0  0  0  0  0  0  0  0  0  0  0
    2.8660    3.0000    0.0000 C   0  0  0  0  0  0  0  0  0  0  0  0
   13.9750   -1.1636    0.0000 C   0  0  0  0  0  0  0  0  0  0  0  0
    2.8660    4.0000    0.0000 C   0  0  0  0  0  0  0  0  0  0  0  0
   14.9695   -1.2681    0.0000 C   0  0  0  0  0  0  0  0  0  0  0  0
    2.0000    4.5000    0.0000 C   0  0  0  0  0  0  0  0  0  0  0  0
    3.7320    4.5000    0.0000 C   0  0  0  0  0  0  0  0  0  0  0  0
    2.0000    5.5000    0.0000 C   0  0  0  0  0  0  0  0  0  0  0  0
    3.7320    5.5000    0.0000 C   0  0  0  0  0  0  0  0  0  0  0  0
    2.8660    6.0000    0.0000 C   0  0  0  0  0  0  0  0  0  0  0  0
    6.6437    2.2185    0.0000 H   0  0  0  0  0  0  0  0  0  0  0  0
    7.4082    0.9174    0.0000 H   0  0  0  0  0  0  0  0  0  0  0  0
    7.8067    1.6077    0.0000 H   0  0  0  0  0  0  0  0  0  0  0  0
    5.8207    3.3400    0.0000 H   0  0  0  0  0  0  0  0  0  0  0  0
    6.0771    2.5508    0.0000 H   0  0  0  0  0  0  0  0  0  0  0  0
    6.8671    0.6900    0.0000 H   0  0  0  0  0  0  0  0  0  0  0  0
    6.7610    4.6554    0.0000 H   0  0  0  0  0  0  0  0  0  0  0  0
    6.0897    4.1678    0.0000 H   0  0  0  0  0  0  0  0  0  0  0  0
    7.7331   -1.1900    0.0000 H   0  0  0  0  0  0  0  0  0  0  0  0
    8.0606    4.5404    0.0000 H   0  0  0  0  0  0  0  0  0  0  0  0
    5.7932   -0.3100    0.0000 H   0  0  0  0  0  0  0  0  0  0  0  0
    7.6636   -2.4750    0.0000 H   0  0  0  0  0  0  0  0  0  0  0  0
    8.4607   -2.4750    0.0000 H   0  0  0  0  0  0  0  0  0  0  0  0
    9.7942   -1.3800    0.0000 H   0  0  0  0  0  0  0  0  0  0  0  0
    6.1181   -1.4174    0.0000 H   0  0  0  0  0  0  0  0  0  0  0  0
    5.7196   -2.1077    0.0000 H   0  0  0  0  0  0  0  0  0  0  0  0
    5.4641    2.1200    0.0000 H   0  0  0  0  0  0  0  0  0  0  0  0
    9.2573   -2.6900    0.0000 H   0  0  0  0  0  0  0  0  0  0  0  0
   10.6603   -0.8800    0.0000 H   0  0  0  0  0  0  0  0  0  0  0  0
   10.3503   -4.0369    0.0000 H   0  0  0  0  0  0  0  0  0  0  0  0
   11.1972   -3.8100    0.0000 H   0  0  0  0  0  0  0  0  0  0  0  0
   10.9703   -2.9631    0.0000 H   0  0  0  0  0  0  0  0  0  0  0  0
    8.6182   -2.9631    0.0000 H   0  0  0  0  0  0  0  0  0  0  0  0
    8.3913   -3.8100    0.0000 H   0  0  0  0  0  0  0  0  0  0  0  0
    9.2382   -4.0369    0.0000 H   0  0  0  0  0  0  0  0  0  0  0  0
    4.5981    0.3800    0.0000 H   0  0  0  0  0  0  0  0  0  0  0  0
    7.7331   -3.1900    0.0000 H   0  0  0  0  0  0  0  0  0  0  0  0
    4.9272   -3.1900    0.0000 H   0  0  0  0  0  0  0  0  0  0  0  0
    7.7331   -4.8100    0.0000 H   0  0  0  0  0  0  0  0  0  0  0  0
    4.9272   -4.8100    0.0000 H   0  0  0  0  0  0  0  0  0  0  0  0
   13.4348   -2.5132    0.0000 H   0  0  0  0  0  0  0  0  0  0  0  0
    2.2554    3.1077    0.0000 H   0  0  0  0  0  0  0  0  0  0  0  0
    2.6540    2.4174    0.0000 H   0  0  0  0  0  0  0  0  0  0  0  0
   14.9047   -1.8847    0.0000 H   0  0  0  0  0  0  0  0  0  0  0  0
   15.5861   -1.3329    0.0000 H   0  0  0  0  0  0  0  0  0  0  0  0
   15.0343   -0.6515    0.0000 H   0  0  0  0  0  0  0  0  0  0  0  0
    1.4631    4.1900    0.0000 H   0  0  0  0  0  0  0  0  0  0  0  0
    4.2690    4.1900    0.0000 H   0  0  0  0  0  0  0  0  0  0  0  0
    1.4631    5.8100    0.0000 H   0  0  0  0  0  0  0  0  0  0  0  0
    4.2690    5.8100    0.0000 H   0  0  0  0  0  0  0  0  0  0  0  0
    2.8660    6.6200    0.0000 H   0  0  0  0  0  0  0  0  0  0  0  0
  1 37  1  0  0  0  0
  2 18  2  0  0  0  0
  3 21  2  0  0  0  0
  4 25  2  0  0  0  0
  5 34  1  0  0  0  0
  5 40  1  0  0  0  0
  6 33  2  0  0  0  0
  7 34  2  0  0  0  0
  8 12  1  0  0  0  0
  8 41  1  0  0  0  0
  9 17  1  0  0  0  0
  9 18  1  0  0  0  0
  9 58  1  0  0  0  0
 16 10  1  6  0  0  0
 10 21  1  0  0  0  0
 10 59  1  0  0  0  0
 22 11  1  1  0  0  0
 11 33  1  0  0  0  0
 11 67  1  0  0  0  0
 12 38  2  0  0  0  0
 13 14  1  6  0  0  0
 13 15  1  0  0  0  0
 13 18  1  0  0  0  0
 13 49  1  0  0  0  0
 14 16  1  0  0  0  0
 14 50  1  0  0  0  0
 14 51  1  0  0  0  0
 15 17  1  0  0  0  0
 15 52  1  0  0  0  0
 15 53  1  0  0  0  0
 16 24  1  0  0  0  0
 16 54  1  0  0  0  0
 17 55  1  0  0  0  0
 17 56  1  0  0  0  0
 19 20  1  1  0  0  0
 19 21  1  0  0  0  0
 19 23  1  0  0  0  0
 19 57  1  0  0  0  0
 20 25  1  0  0  0  0
 20 60  1  0  0  0  0
 20 61  1  0  0  0  0
 22 25  1  0  0  0  0
 22 26  1  0  0  0  0
 22 62  1  0  0  0  0
 23 27  1  0  0  0  0
 23 63  1  0  0  0  0
 23 64  1  0  0  0  0
 24 30  2  0  0  0  0
 24 65  1  0  0  0  0
 26 28  1  0  0  0  0
 26 29  1  0  0  0  0
 26 66  1  0  0  0  0
 27 31  2  0  0  0  0
 27 32  1  0  0  0  0
 28 68  1  0  0  0  0
 28 69  1  0  0  0  0
 28 70  1  0  0  0  0
 29 71  1  0  0  0  0
 29 72  1  0  0  0  0
 29 73  1  0  0  0  0
 30 34  1  0  0  0  0
 30 74  1  0  0  0  0
 31 35  1  0  0  0  0
 31 75  1  0  0  0  0
 32 36  2  0  0  0  0
 32 76  1  0  0  0  0
 33 38  1  0  0  0  0
 35 37  2  0  0  0  0
 35 77  1  0  0  0  0
 36 37  1  0  0  0  0
 36 78  1  0  0  0  0
 38 39  1  0  0  0  0
 39 41  2  0  0  0  0
 39 79  1  0  0  0  0
 40 42  1  0  0  0  0
 40 80  1  0  0  0  0
 40 81  1  0  0  0  0
 41 43  1  0  0  0  0
 42 44  2  0  0  0  0
 42 45  1  0  0  0  0
 43 82  1  0  0  0  0
 43 83  1  0  0  0  0
 43 84  1  0  0  0  0
 44 46  1  0  0  0  0
 44 85  1  0  0  0  0
 45 47  2  0  0  0  0
 45 86  1  0  0  0  0
 46 48  2  0  0  0  0
 46 87  1  0  0  0  0
 47 48  1  0  0  0  0
 47 88  1  0  0  0  0
 48 89  1  0  0  0  0
M  END
> <PUBCHEM_COMPOUND_CID>
127051807

> <PUBCHEM_COMPOUND_CANONICALIZED>
1

> <PUBCHEM_CACTVS_COMPLEXITY>
1140

> <PUBCHEM_CACTVS_HBOND_ACCEPTOR>
9

> <PUBCHEM_CACTVS_HBOND_DONOR>
3

> <PUBCHEM_CACTVS_ROTATABLE_BOND>
17

> <PUBCHEM_CACTVS_SUBSKEYS>
AAADcfB/uQAAAAAAAAAAAAAAAAAAAWLAAAAwYAAAAAAAAAAB0AAAHwAUAAAADSzhng4yjJLQBACpA6XyWgCCAAAmIgAomKG+bNoIZjqAtbuWMYhm1hmI6ce/yeCeAAAAAAAAAAAAAAAAAAAAAAAAAAAAAA==

> <PUBCHEM_IUPAC_OPENEYE_NAME>
benzyl (E,4S)-4-[[(2R,5S)-2-[(4-fluorophenyl)methyl]-6-methyl-5-[(5-methylisoxazole-3-carbonyl)amino]-4-oxo-heptanoyl]amino]-5-[(3S)-2-oxopyrrolidin-3-yl]pent-2-enoate

> <PUBCHEM_IUPAC_CAS_NAME>
(E,4S)-4-[[(2R,5S)-2-[(4-fluorophenyl)methyl]-6-methyl-5-[[(5-methyl-3-isoxazolyl)-oxomethyl]amino]-1,4-dioxoheptyl]amino]-5-[(3S)-2-oxo-3-pyrrolidinyl]-2-pentenoic acid (phenylmethyl) ester

> <PUBCHEM_IUPAC_NAME_MARKUP>
benzyl (<I>E</I>,4<I>S</I>)-4-[[(2<I>R</I>,5<I>S</I>)-2-[(4-fluorophenyl)methyl]-6-methyl-5-[(5-methyl-1,2-oxazole-3-carbonyl)amino]-4-oxoheptanoyl]amino]-5-[(3<I>S</I>)-2-oxopyrrolidin-3-yl]pent-2-enoate

> <PUBCHEM_IUPAC_NAME>
benzyl (E,4S)-4-[[(2R,5S)-2-[(4-fluorophenyl)methyl]-6-methyl-5-[(5-methyl-1,2-oxazole-3-carbonyl)amino]-4-oxoheptanoyl]amino]-5-[(3S)-2-oxopyrrolidin-3-yl]pent-2-enoate

> <PUBCHEM_IUPAC_SYSTEMATIC_NAME>
(phenylmethyl) (E,4S)-4-[[(2R,5S)-2-[(4-fluorophenyl)methyl]-6-methyl-5-[(5-methyl-1,2-oxazol-3-yl)carbonylamino]-4-oxidanylidene-heptanoyl]amino]-5-[(3S)-2-oxidanylidenepyrrolidin-3-yl]pent-2-enoate

> <PUBCHEM_IUPAC_TRADITIONAL_NAME>
(E,4S)-4-[[(2R,5S)-2-(4-fluorobenzyl)-4-keto-6-methyl-5-[(5-methylisoxazole-3-carbonyl)amino]heptanoyl]amino]-5-[(3S)-2-ketopyrrolidin-3-yl]pent-2-enoic acid benzyl ester

> <PUBCHEM_IUPAC_INCHI>
InChI=1S/C36H41FN4O7/c1-22(2)33(40-36(46)30-17-23(3)48-41-30)31(42)20-27(18-24-9-11-28(37)12-10-24)35(45)39-29(19-26-15-16-38-34(26)44)13-14-32(43)47-21-25-7-5-4-6-8-25/h4-14,17,22,26-27,29,33H,15-16,18-21H2,1-3H3,(H,38,44)(H,39,45)(H,40,46)/b14-13+/t26-,27+,29+,33-/m0/s1

> <PUBCHEM_IUPAC_INCHIKEY>
AVCVLOCVVOAUFD-ZDUBGRISSA-N

> <PUBCHEM_XLOGP3_AA>
4.2

> <PUBCHEM_EXACT_MASS>
660.295928

> <PUBCHEM_MOLECULAR_FORMULA>
C36H41FN4O7

> <PUBCHEM_MOLECULAR_WEIGHT>
660.7

> <PUBCHEM_OPENEYE_CAN_SMILES>
CC1=CC(=NO1)C(=O)NC(C(C)C)C(=O)CC(CC2=CC=C(C=C2)F)C(=O)NC(CC3CCNC3=O)C=CC(=O)OCC4=CC=CC=C4

> <PUBCHEM_OPENEYE_ISO_SMILES>
CC1=CC(=NO1)C(=O)N[C@@H](C(C)C)C(=O)C[C@@H](CC2=CC=C(C=C2)F)C(=O)N[C@@H](C[C@@H]3CCNC3=O)/C=C/C(=O)OCC4=CC=CC=C4

> <PUBCHEM_CACTVS_TPSA>
157

> <PUBCHEM_MONOISOTOPIC_WEIGHT>
660.295928

> <PUBCHEM_TOTAL_CHARGE>
0

> <PUBCHEM_HEAVY_ATOM_COUNT>
48

> <PUBCHEM_ATOM_DEF_STEREO_COUNT>
4

> <PUBCHEM_ATOM_UDEF_STEREO_COUNT>
0

> <PUBCHEM_BOND_DEF_STEREO_COUNT>
1

> <PUBCHEM_BOND_UDEF_STEREO_COUNT>
0

> <PUBCHEM_ISOTOPIC_ATOM_COUNT>
0

> <PUBCHEM_COMPONENT_COUNT>
1

> <PUBCHEM_CACTVS_TAUTO_COUNT>
-1

> <PUBCHEM_COORDINATE_TYPE>
1
5
255

> <PUBCHEM_BONDANNOTATIONS>
16  10  6
22  11  5
12  38  8
13  14  6
19  20  5
27  31  8
27  32  8
31  35  8
32  36  8
35  37  8
36  37  8
38  39  8
39  41  8
42  44  8
42  45  8
44  46  8
45  47  8
46  48  8
47  48  8
8  12  8
8  41  8

$$$$
127051808
  -OEChem-02212016592D

 86 89  0     1  0  0  0  0  0999 V2000
    6.6888   -5.2702    0.0000 F   0  0  0  0  0  0  0  0  0  0  0  0
    4.0908    3.2298    0.0000 O   0  0  0  0  0  0  0  0  0  0  0  0
    9.3150    3.5086    0.0000 O   0  0  0  0  0  0  0  0  0  0  0  0
    8.4209    0.7298    0.0000 O   0  0  0  0  0  0  0  0  0  0  0  0
    9.2869    0.2298    0.0000 O   0  0  0  0  0  0  0  0  0  0  0  0
    3.2247    1.7298    0.0000 O   0  0  0  0  0  0  0  0  0  0  0  0
   11.8850   -2.2702    0.0000 O   0  0  0  0  0  0  0  0  0  0  0  0
   13.8337    0.4322    0.0000 O   0  0  0  0  0  0  0  0  0  0  0  0
    8.0549    4.7686    0.0000 N   0  0  0  0  0  0  0  0  0  0  0  0
    6.6888    0.7298    0.0000 N   0  0  0  0  0  0  0  0  0  0  0  0
   11.0190   -0.7702    0.0000 N   0  0  0  0  0  0  0  0  0  0  0  0
   12.8556    0.2243    0.0000 N   0  0  0  0  0  0  0  0  0  0  0  0
    7.5549    3.2298    0.0000 C   0  0  2  0  0  0  0  0  0  0  0  0
    3.2247    3.7298    0.0000 C   0  0  0  0  0  0  0  0  0  0  0  0
    2.2588    3.4710    0.0000 C   0  0  0  0  0  0  0  0  0  0  0  0
    2.9659    4.6957    0.0000 C   0  0  0  0  0  0  0  0  0  0  0  0
    2.0000    4.4369    0.0000 C   0  0  0  0  0  0  0  0  0  0  0  0
    7.5549    2.2298    0.0000 C   0  0  0  0  0  0  0  0  0  0  0  0
    6.7458    3.8176    0.0000 C   0  0  0  0  0  0  0  0  0  0  0  0
    6.6888    1.7298    0.0000 C   0  0  1  0  0  0  0  0  0  0  0  0
    7.0549    4.7686    0.0000 C   0  0  0  0  0  0  0  0  0  0  0  0
    8.3639    3.8176    0.0000 C   0  0  0  0  0  0  0  0  0  0  0  0
    7.5549   -0.7702    0.0000 C   0  0  2  0  0  0  0  0  0  0  0  0
    8.4209   -1.2702    0.0000 C   0  0  0  0  0  0  0  0  0  0  0  0
    5.8228    2.2298    0.0000 C   0  0  0  0  0  0  0  0  0  0  0  0
    7.5549    0.2298    0.0000 C   0  0  0  0  0  0  0  0  0  0  0  0
   10.1529   -1.2702    0.0000 C   0  0  2  0  0  0  0  0  0  0  0  0
    6.6888   -1.2702    0.0000 C   0  0  0  0  0  0  0  0  0  0  0  0
    9.2869   -0.7702    0.0000 C   0  0  0  0  0  0  0  0  0  0  0  0
   10.1529   -2.2702    0.0000 C   0  0  0  0  0  0  0  0  0  0  0  0
    4.9568    1.7298    0.0000 C   0  0  0  0  0  0  0  0  0  0  0  0
    4.0908    2.2298    0.0000 C   0  0  0  0  0  0  0  0  0  0  0  0
    6.6888   -2.2702    0.0000 C   0  0  0  0  0  0  0  0  0  0  0  0
   11.0190   -2.7702    0.0000 C   0  0  0  0  0  0  0  0  0  0  0  0
    9.2869   -2.7702    0.0000 C   0  0  0  0  0  0  0  0  0  0  0  0
    7.5549   -2.7702    0.0000 C   0  0  0  0  0  0  0  0  0  0  0  0
    5.8228   -2.7702    0.0000 C   0  0  0  0  0  0  0  0  0  0  0  0
   11.8850   -1.2702    0.0000 C   0  0  0  0  0  0  0  0  0  0  0  0
    7.5549   -3.7702    0.0000 C   0  0  0  0  0  0  0  0  0  0  0  0
    5.8228   -3.7702    0.0000 C   0  0  0  0  0  0  0  0  0  0  0  0
    6.6888   -4.2702    0.0000 C   0  0  0  0  0  0  0  0  0  0  0  0
   12.7510   -0.7702    0.0000 C   0  0  0  0  0  0  0  0  0  0  0  0
   13.6646   -1.1770    0.0000 C   0  0  0  0  0  0  0  0  0  0  0  0
   14.3337   -0.4338    0.0000 C   0  0  0  0  0  0  0  0  0  0  0  0
   15.3282   -0.5383    0.0000 C   0  0  0  0  0  0  0  0  0  0  0  0
    8.1073    2.9483    0.0000 H   0  0  0  0  0  0  0  0  0  0  0  0
    3.1438    3.1151    0.0000 H   0  0  0  0  0  0  0  0  0  0  0  0
    1.6600    3.3105    0.0000 H   0  0  0  0  0  0  0  0  0  0  0  0
    2.4193    2.8721    0.0000 H   0  0  0  0  0  0  0  0  0  0  0  0
    3.5648    4.8562    0.0000 H   0  0  0  0  0  0  0  0  0  0  0  0
    2.8055    5.2946    0.0000 H   0  0  0  0  0  0  0  0  0  0  0  0
    1.8395    5.0358    0.0000 H   0  0  0  0  0  0  0  0  0  0  0  0
    1.4011    4.2764    0.0000 H   0  0  0  0  0  0  0  0  0  0  0  0
    7.7669    1.6472    0.0000 H   0  0  0  0  0  0  0  0  0  0  0  0
    8.1654    2.3374    0.0000 H   0  0  0  0  0  0  0  0  0  0  0  0
    6.1795    4.0698    0.0000 H   0  0  0  0  0  0  0  0  0  0  0  0
    6.4358    3.2806    0.0000 H   0  0  0  0  0  0  0  0  0  0  0  0
    7.2258    1.4198    0.0000 H   0  0  0  0  0  0  0  0  0  0  0  0
    7.1197    5.3852    0.0000 H   0  0  0  0  0  0  0  0  0  0  0  0
    6.4484    4.8975    0.0000 H   0  0  0  0  0  0  0  0  0  0  0  0
    7.5549   -1.3902    0.0000 H   0  0  0  0  0  0  0  0  0  0  0  0
    8.4193    5.2702    0.0000 H   0  0  0  0  0  0  0  0  0  0  0  0
    6.1519    0.4198    0.0000 H   0  0  0  0  0  0  0  0  0  0  0  0
    8.0224   -1.7452    0.0000 H   0  0  0  0  0  0  0  0  0  0  0  0
    8.8194   -1.7452    0.0000 H   0  0  0  0  0  0  0  0  0  0  0  0
    5.8228    2.8498    0.0000 H   0  0  0  0  0  0  0  0  0  0  0  0
   10.1529   -0.6502    0.0000 H   0  0  0  0  0  0  0  0  0  0  0  0
    6.4768   -0.6876    0.0000 H   0  0  0  0  0  0  0  0  0  0  0  0
    6.0783   -1.3779    0.0000 H   0  0  0  0  0  0  0  0  0  0  0  0
   10.6899   -1.9602    0.0000 H   0  0  0  0  0  0  0  0  0  0  0  0
    4.9568    1.1098    0.0000 H   0  0  0  0  0  0  0  0  0  0  0  0
   11.0190   -0.1502    0.0000 H   0  0  0  0  0  0  0  0  0  0  0  0
   10.7090   -3.3072    0.0000 H   0  0  0  0  0  0  0  0  0  0  0  0
   11.5559   -3.0802    0.0000 H   0  0  0  0  0  0  0  0  0  0  0  0
   11.3290   -2.2333    0.0000 H   0  0  0  0  0  0  0  0  0  0  0  0
    8.9769   -2.2333    0.0000 H   0  0  0  0  0  0  0  0  0  0  0  0
    8.7500   -3.0802    0.0000 H   0  0  0  0  0  0  0  0  0  0  0  0
    9.5969   -3.3072    0.0000 H   0  0  0  0  0  0  0  0  0  0  0  0
    8.0918   -2.4602    0.0000 H   0  0  0  0  0  0  0  0  0  0  0  0
    5.2859   -2.4602    0.0000 H   0  0  0  0  0  0  0  0  0  0  0  0
    8.0918   -4.0802    0.0000 H   0  0  0  0  0  0  0  0  0  0  0  0
    5.2859   -4.0802    0.0000 H   0  0  0  0  0  0  0  0  0  0  0  0
   13.7935   -1.7834    0.0000 H   0  0  0  0  0  0  0  0  0  0  0  0
   15.2634   -1.1549    0.0000 H   0  0  0  0  0  0  0  0  0  0  0  0
   15.9448   -0.6031    0.0000 H   0  0  0  0  0  0  0  0  0  0  0  0
   15.3930    0.0783    0.0000 H   0  0  0  0  0  0  0  0  0  0  0  0
  1 41  1  0  0  0  0
  2 14  1  0  0  0  0
  2 32  1  0  0  0  0
  3 22  2  0  0  0  0
  4 26  2  0  0  0  0
  5 29  2  0  0  0  0
  6 32  2  0  0  0  0
  7 38  2  0  0  0  0
  8 12  1  0  0  0  0
  8 44  1  0  0  0  0
  9 21  1  0  0  0  0
  9 22  1  0  0  0  0
  9 62  1  0  0  0  0
 20 10  1  6  0  0  0
 10 26  1  0  0  0  0
 10 63  1  0  0  0  0
 27 11  1  1  0  0  0
 11 38  1  0  0  0  0
 11 72  1  0  0  0  0
 12 42  2  0  0  0  0
 13 18  1  6  0  0  0
 13 19  1  0  0  0  0
 13 22  1  0  0  0  0
 13 46  1  0  0  0  0
 14 15  1  0  0  0  0
 14 16  1  0  0  0  0
 14 47  1  0  0  0  0
 15 17  1  0  0  0  0
 15 48  1  0  0  0  0
 15 49  1  0  0  0  0
 16 17  1  0  0  0  0
 16 50  1  0  0  0  0
 16 51  1  0  0  0  0
 17 52  1  0  0  0  0
 17 53  1  0  0  0  0
 18 20  1  0  0  0  0
 18 54  1  0  0  0  0
 18 55  1  0  0  0  0
 19 21  1  0  0  0  0
 19 56  1  0  0  0  0
 19 57  1  0  0  0  0
 20 25  1  0  0  0  0
 20 58  1  0  0  0  0
 21 59  1  0  0  0  0
 21 60  1  0  0  0  0
 23 24  1  1  0  0  0
 23 26  1  0  0  0  0
 23 28  1  0  0  0  0
 23 61  1  0  0  0  0
 24 29  1  0  0  0  0
 24 64  1  0  0  0  0
 24 65  1  0  0  0  0
 25 31  2  0  0  0  0
 25 66  1  0  0  0  0
 27 29  1  0  0  0  0
 27 30  1  0  0  0  0
 27 67  1  0  0  0  0
 28 33  1  0  0  0  0
 28 68  1  0  0  0  0
 28 69  1  0  0  0  0
 30 34  1  0  0  0  0
 30 35  1  0  0  0  0
 30 70  1  0  0  0  0
 31 32  1  0  0  0  0
 31 71  1  0  0  0  0
 33 36  2  0  0  0  0
 33 37  1  0  0  0  0
 34 73  1  0  0  0  0
 34 74  1  0  0  0  0
 34 75  1  0  0  0  0
 35 76  1  0  0  0  0
 35 77  1  0  0  0  0
 35 78  1  0  0  0  0
 36 39  1  0  0  0  0
 36 79  1  0  0  0  0
 37 40  2  0  0  0  0
 37 80  1  0  0  0  0
 38 42  1  0  0  0  0
 39 41  2  0  0  0  0
 39 81  1  0  0  0  0
 40 41  1  0  0  0  0
 40 82  1  0  0  0  0
 42 43  1  0  0  0  0
 43 44  2  0  0  0  0
 43 83  1  0  0  0  0
 44 45  1  0  0  0  0
 45 84  1  0  0  0  0
 45 85  1  0  0  0  0
 45 86  1  0  0  0  0
M  END
> <PUBCHEM_COMPOUND_CID>
127051808

> <PUBCHEM_COMPOUND_CANONICALIZED>
1

> <PUBCHEM_CACTVS_COMPLEXITY>
1090

> <PUBCHEM_CACTVS_HBOND_ACCEPTOR>
9

> <PUBCHEM_CACTVS_HBOND_DONOR>
3

> <PUBCHEM_CACTVS_ROTATABLE_BOND>
16

> <PUBCHEM_CACTVS_SUBSKEYS>
AAADcfB/uQAAAAAAAAAAAAAAAABgAWLAAAAwAAAAAAAAAAABwAAAHwAUAAAADTzhng4yjJLQBACpA6XyWgCCAAAmIgAomKG+bNoIZjqAtbOWMYhmlhiI6cc/icCeAAAAAAAAAAAAAAAAAAAAAAAAAAAAAA==

> <PUBCHEM_IUPAC_OPENEYE_NAME>
cyclobutyl (E,4S)-4-[[(2R,5S)-2-[(4-fluorophenyl)methyl]-6-methyl-5-[(5-methylisoxazole-3-carbonyl)amino]-4-oxo-heptanoyl]amino]-5-[(3S)-2-oxopyrrolidin-3-yl]pent-2-enoate

> <PUBCHEM_IUPAC_CAS_NAME>
(E,4S)-4-[[(2R,5S)-2-[(4-fluorophenyl)methyl]-6-methyl-5-[[(5-methyl-3-isoxazolyl)-oxomethyl]amino]-1,4-dioxoheptyl]amino]-5-[(3S)-2-oxo-3-pyrrolidinyl]-2-pentenoic acid cyclobutyl ester

> <PUBCHEM_IUPAC_NAME_MARKUP>
cyclobutyl (<I>E</I>,4<I>S</I>)-4-[[(2<I>R</I>,5<I>S</I>)-2-[(4-fluorophenyl)methyl]-6-methyl-5-[(5-methyl-1,2-oxazole-3-carbonyl)amino]-4-oxoheptanoyl]amino]-5-[(3<I>S</I>)-2-oxopyrrolidin-3-yl]pent-2-enoate

> <PUBCHEM_IUPAC_NAME>
cyclobutyl (E,4S)-4-[[(2R,5S)-2-[(4-fluorophenyl)methyl]-6-methyl-5-[(5-methyl-1,2-oxazole-3-carbonyl)amino]-4-oxoheptanoyl]amino]-5-[(3S)-2-oxopyrrolidin-3-yl]pent-2-enoate

> <PUBCHEM_IUPAC_SYSTEMATIC_NAME>
cyclobutyl (E,4S)-4-[[(2R,5S)-2-[(4-fluorophenyl)methyl]-6-methyl-5-[(5-methyl-1,2-oxazol-3-yl)carbonylamino]-4-oxidanylidene-heptanoyl]amino]-5-[(3S)-2-oxidanylidenepyrrolidin-3-yl]pent-2-enoate

> <PUBCHEM_IUPAC_TRADITIONAL_NAME>
(E,4S)-4-[[(2R,5S)-2-(4-fluorobenzyl)-4-keto-6-methyl-5-[(5-methylisoxazole-3-carbonyl)amino]heptanoyl]amino]-5-[(3S)-2-ketopyrrolidin-3-yl]pent-2-enoic acid cyclobutyl ester

> <PUBCHEM_IUPAC_INCHI>
InChI=1S/C33H41FN4O7/c1-19(2)30(37-33(43)27-15-20(3)45-38-27)28(39)18-23(16-21-7-9-24(34)10-8-21)32(42)36-25(17-22-13-14-35-31(22)41)11-12-29(40)44-26-5-4-6-26/h7-12,15,19,22-23,25-26,30H,4-6,13-14,16-18H2,1-3H3,(H,35,41)(H,36,42)(H,37,43)/b12-11+/t22-,23+,25+,30-/m0/s1

> <PUBCHEM_IUPAC_INCHIKEY>
PVSLITXZVHPSDM-LZIMUIKUSA-N

> <PUBCHEM_XLOGP3_AA>
3.6

> <PUBCHEM_EXACT_MASS>
624.295928

> <PUBCHEM_MOLECULAR_FORMULA>
C33H41FN4O7

> <PUBCHEM_MOLECULAR_WEIGHT>
624.7

> <PUBCHEM_OPENEYE_CAN_SMILES>
CC1=CC(=NO1)C(=O)NC(C(C)C)C(=O)CC(CC2=CC=C(C=C2)F)C(=O)NC(CC3CCNC3=O)C=CC(=O)OC4CCC4

> <PUBCHEM_OPENEYE_ISO_SMILES>
CC1=CC(=NO1)C(=O)N[C@@H](C(C)C)C(=O)C[C@@H](CC2=CC=C(C=C2)F)C(=O)N[C@@H](C[C@@H]3CCNC3=O)/C=C/C(=O)OC4CCC4

> <PUBCHEM_CACTVS_TPSA>
157

> <PUBCHEM_MONOISOTOPIC_WEIGHT>
624.295928

> <PUBCHEM_TOTAL_CHARGE>
0

> <PUBCHEM_HEAVY_ATOM_COUNT>
45

> <PUBCHEM_ATOM_DEF_STEREO_COUNT>
4

> <PUBCHEM_ATOM_UDEF_STEREO_COUNT>
0

> <PUBCHEM_BOND_DEF_STEREO_COUNT>
1

> <PUBCHEM_BOND_UDEF_STEREO_COUNT>
0

> <PUBCHEM_ISOTOPIC_ATOM_COUNT>
0

> <PUBCHEM_COMPONENT_COUNT>
1

> <PUBCHEM_CACTVS_TAUTO_COUNT>
-1

> <PUBCHEM_COORDINATE_TYPE>
1
5
255

> <PUBCHEM_BONDANNOTATIONS>
20  10  6
27  11  5
12  42  8
13  18  6
23  24  5
33  36  8
33  37  8
36  39  8
37  40  8
39  41  8
40  41  8
42  43  8
43  44  8
8  12  8
8  44  8

$$$$
127051809
  -OEChem-02212016592D

 83 86  0     1  0  0  0  0  0999 V2000
    5.3147   -5.2702    0.0000 F   0  0  0  0  0  0  0  0  0  0  0  0
    7.9408    3.5086    0.0000 O   0  0  0  0  0  0  0  0  0  0  0  0
    2.0000    1.3934    0.0000 O   0  0  0  0  0  0  0  0  0  0  0  0
    7.0468    0.7298    0.0000 O   0  0  0  0  0  0  0  0  0  0  0  0
    7.9128    0.2298    0.0000 O   0  0  0  0  0  0  0  0  0  0  0  0
    2.4612    3.1147    0.0000 O   0  0  0  0  0  0  0  0  0  0  0  0
   10.5109   -2.2702    0.0000 O   0  0  0  0  0  0  0  0  0  0  0  0
   12.4596    0.4322    0.0000 O   0  0  0  0  0  0  0  0  0  0  0  0
    6.6808    4.7686    0.0000 N   0  0  0  0  0  0  0  0  0  0  0  0
    5.3147    0.7298    0.0000 N   0  0  0  0  0  0  0  0  0  0  0  0
    9.6448   -0.7702    0.0000 N   0  0  0  0  0  0  0  0  0  0  0  0
   11.4814    0.2243    0.0000 N   0  0  0  0  0  0  0  0  0  0  0  0
    6.1808    3.2298    0.0000 C   0  0  2  0  0  0  0  0  0  0  0  0
    6.1808    2.2298    0.0000 C   0  0  0  0  0  0  0  0  0  0  0  0
    5.3147    1.7298    0.0000 C   0  0  1  0  0  0  0  0  0  0  0  0
    5.3717    3.8176    0.0000 C   0  0  0  0  0  0  0  0  0  0  0  0
    5.6808    4.7686    0.0000 C   0  0  0  0  0  0  0  0  0  0  0  0
    6.9898    3.8176    0.0000 C   0  0  0  0  0  0  0  0  0  0  0  0
    6.1808   -0.7702    0.0000 C   0  0  2  0  0  0  0  0  0  0  0  0
    4.4487    2.2298    0.0000 C   0  0  0  0  0  0  0  0  0  0  0  0
    7.0468   -1.2702    0.0000 C   0  0  0  0  0  0  0  0  0  0  0  0
    6.1808    0.2298    0.0000 C   0  0  0  0  0  0  0  0  0  0  0  0
    3.5827    1.7298    0.0000 C   0  0  0  0  0  0  0  0  0  0  0  0
    5.3147   -1.2702    0.0000 C   0  0  0  0  0  0  0  0  0  0  0  0
    8.7788   -1.2702    0.0000 C   0  0  2  0  0  0  0  0  0  0  0  0
    3.4782    0.7353    0.0000 C   0  0  0  0  0  0  0  0  0  0  0  0
    7.9128   -0.7702    0.0000 C   0  0  0  0  0  0  0  0  0  0  0  0
    8.7788   -2.2702    0.0000 C   0  0  0  0  0  0  0  0  0  0  0  0
    2.5000    0.5274    0.0000 C   0  0  3  0  0  0  0  0  0  0  0  0
    2.6691    2.1365    0.0000 C   0  0  0  0  0  0  0  0  0  0  0  0
    5.3147   -2.2702    0.0000 C   0  0  0  0  0  0  0  0  0  0  0  0
    9.6448   -2.7702    0.0000 C   0  0  0  0  0  0  0  0  0  0  0  0
    7.9128   -2.7702    0.0000 C   0  0  0  0  0  0  0  0  0  0  0  0
    2.0933   -0.3862    0.0000 C   0  0  0  0  0  0  0  0  0  0  0  0
    6.1808   -2.7702    0.0000 C   0  0  0  0  0  0  0  0  0  0  0  0
    4.4487   -2.7702    0.0000 C   0  0  0  0  0  0  0  0  0  0  0  0
   10.5109   -1.2702    0.0000 C   0  0  0  0  0  0  0  0  0  0  0  0
    6.1808   -3.7702    0.0000 C   0  0  0  0  0  0  0  0  0  0  0  0
    4.4487   -3.7702    0.0000 C   0  0  0  0  0  0  0  0  0  0  0  0
    5.3147   -4.2702    0.0000 C   0  0  0  0  0  0  0  0  0  0  0  0
   11.3769   -0.7702    0.0000 C   0  0  0  0  0  0  0  0  0  0  0  0
   12.2905   -1.1770    0.0000 C   0  0  0  0  0  0  0  0  0  0  0  0
   12.9596   -0.4338    0.0000 C   0  0  0  0  0  0  0  0  0  0  0  0
   13.9541   -0.5383    0.0000 C   0  0  0  0  0  0  0  0  0  0  0  0
    6.7332    2.9483    0.0000 H   0  0  0  0  0  0  0  0  0  0  0  0
    6.3928    1.6472    0.0000 H   0  0  0  0  0  0  0  0  0  0  0  0
    6.7913    2.3374    0.0000 H   0  0  0  0  0  0  0  0  0  0  0  0
    5.8517    1.4198    0.0000 H   0  0  0  0  0  0  0  0  0  0  0  0
    4.8053    4.0698    0.0000 H   0  0  0  0  0  0  0  0  0  0  0  0
    5.0617    3.2806    0.0000 H   0  0  0  0  0  0  0  0  0  0  0  0
    5.7456    5.3852    0.0000 H   0  0  0  0  0  0  0  0  0  0  0  0
    5.0743    4.8975    0.0000 H   0  0  0  0  0  0  0  0  0  0  0  0
    6.1808   -1.3902    0.0000 H   0  0  0  0  0  0  0  0  0  0  0  0
    7.0452    5.2702    0.0000 H   0  0  0  0  0  0  0  0  0  0  0  0
    4.7778    0.4198    0.0000 H   0  0  0  0  0  0  0  0  0  0  0  0
    4.4487    2.8498    0.0000 H   0  0  0  0  0  0  0  0  0  0  0  0
    6.6482   -1.7452    0.0000 H   0  0  0  0  0  0  0  0  0  0  0  0
    7.4453   -1.7452    0.0000 H   0  0  0  0  0  0  0  0  0  0  0  0
    5.1027   -0.6876    0.0000 H   0  0  0  0  0  0  0  0  0  0  0  0
    4.7042   -1.3779    0.0000 H   0  0  0  0  0  0  0  0  0  0  0  0
    8.7788   -0.6502    0.0000 H   0  0  0  0  0  0  0  0  0  0  0  0
    3.5430    0.1187    0.0000 H   0  0  0  0  0  0  0  0  0  0  0  0
    4.0982    0.7353    0.0000 H   0  0  0  0  0  0  0  0  0  0  0  0
    9.3158   -1.9602    0.0000 H   0  0  0  0  0  0  0  0  0  0  0  0
    1.8808    0.4949    0.0000 H   0  0  0  0  0  0  0  0  0  0  0  0
    9.6448   -0.1502    0.0000 H   0  0  0  0  0  0  0  0  0  0  0  0
    9.3348   -3.3072    0.0000 H   0  0  0  0  0  0  0  0  0  0  0  0
   10.1818   -3.0802    0.0000 H   0  0  0  0  0  0  0  0  0  0  0  0
    9.9548   -2.2333    0.0000 H   0  0  0  0  0  0  0  0  0  0  0  0
    7.6028   -2.2333    0.0000 H   0  0  0  0  0  0  0  0  0  0  0  0
    7.3759   -3.0802    0.0000 H   0  0  0  0  0  0  0  0  0  0  0  0
    8.2228   -3.3072    0.0000 H   0  0  0  0  0  0  0  0  0  0  0  0
    1.5269   -0.1340    0.0000 H   0  0  0  0  0  0  0  0  0  0  0  0
    1.8411   -0.9526    0.0000 H   0  0  0  0  0  0  0  0  0  0  0  0
    2.6597   -0.6384    0.0000 H   0  0  0  0  0  0  0  0  0  0  0  0
    6.7177   -2.4602    0.0000 H   0  0  0  0  0  0  0  0  0  0  0  0
    3.9118   -2.4602    0.0000 H   0  0  0  0  0  0  0  0  0  0  0  0
    6.7177   -4.0802    0.0000 H   0  0  0  0  0  0  0  0  0  0  0  0
    3.9118   -4.0802    0.0000 H   0  0  0  0  0  0  0  0  0  0  0  0
   12.4194   -1.7834    0.0000 H   0  0  0  0  0  0  0  0  0  0  0  0
   13.8893   -1.1549    0.0000 H   0  0  0  0  0  0  0  0  0  0  0  0
   14.5707   -0.6031    0.0000 H   0  0  0  0  0  0  0  0  0  0  0  0
   14.0189    0.0783    0.0000 H   0  0  0  0  0  0  0  0  0  0  0  0
  1 40  1  0  0  0  0
  2 18  2  0  0  0  0
  3 29  1  0  0  0  0
  3 30  1  0  0  0  0
  4 22  2  0  0  0  0
  5 27  2  0  0  0  0
  6 30  2  0  0  0  0
  7 37  2  0  0  0  0
  8 12  1  0  0  0  0
  8 43  1  0  0  0  0
  9 17  1  0  0  0  0
  9 18  1  0  0  0  0
  9 54  1  0  0  0  0
 15 10  1  6  0  0  0
 10 22  1  0  0  0  0
 10 55  1  0  0  0  0
 25 11  1  1  0  0  0
 11 37  1  0  0  0  0
 11 66  1  0  0  0  0
 12 41  2  0  0  0  0
 13 14  1  6  0  0  0
 13 16  1  0  0  0  0
 13 18  1  0  0  0  0
 13 45  1  0  0  0  0
 14 15  1  0  0  0  0
 14 46  1  0  0  0  0
 14 47  1  0  0  0  0
 15 20  1  0  0  0  0
 15 48  1  0  0  0  0
 16 17  1  0  0  0  0
 16 49  1  0  0  0  0
 16 50  1  0  0  0  0
 17 51  1  0  0  0  0
 17 52  1  0  0  0  0
 19 21  1  1  0  0  0
 19 22  1  0  0  0  0
 19 24  1  0  0  0  0
 19 53  1  0  0  0  0
 20 23  2  0  0  0  0
 20 56  1  0  0  0  0
 21 27  1  0  0  0  0
 21 57  1  0  0  0  0
 21 58  1  0  0  0  0
 23 26  1  0  0  0  0
 23 30  1  0  0  0  0
 24 31  1  0  0  0  0
 24 59  1  0  0  0  0
 24 60  1  0  0  0  0
 25 27  1  0  0  0  0
 25 28  1  0  0  0  0
 25 61  1  0  0  0  0
 26 29  1  0  0  0  0
 26 62  1  0  0  0  0
 26 63  1  0  0  0  0
 28 32  1  0  0  0  0
 28 33  1  0  0  0  0
 28 64  1  0  0  0  0
 29 34  1  0  0  0  0
 29 65  1  0  0  0  0
 31 35  2  0  0  0  0
 31 36  1  0  0  0  0
 32 67  1  0  0  0  0
 32 68  1  0  0  0  0
 32 69  1  0  0  0  0
 33 70  1  0  0  0  0
 33 71  1  0  0  0  0
 33 72  1  0  0  0  0
 34 73  1  0  0  0  0
 34 74  1  0  0  0  0
 34 75  1  0  0  0  0
 35 38  1  0  0  0  0
 35 76  1  0  0  0  0
 36 39  2  0  0  0  0
 36 77  1  0  0  0  0
 37 41  1  0  0  0  0
 38 40  2  0  0  0  0
 38 78  1  0  0  0  0
 39 40  1  0  0  0  0
 39 79  1  0  0  0  0
 41 42  1  0  0  0  0
 42 43  2  0  0  0  0
 42 80  1  0  0  0  0
 43 44  1  0  0  0  0
 44 81  1  0  0  0  0
 44 82  1  0  0  0  0
 44 83  1  0  0  0  0
M  END
> <PUBCHEM_COMPOUND_CID>
127051809

> <PUBCHEM_COMPOUND_CANONICALIZED>
1

> <PUBCHEM_CACTVS_COMPLEXITY>
1110

> <PUBCHEM_CACTVS_HBOND_ACCEPTOR>
9

> <PUBCHEM_CACTVS_HBOND_DONOR>
3

> <PUBCHEM_CACTVS_ROTATABLE_BOND>
13

> <PUBCHEM_CACTVS_SUBSKEYS>
AAADcfB/uQAAAAAAAAAAAAAAAAAAAWLEgAAwAAAAAAAAAAABwAAAHwAUAAAADTzhng4yjJLQBACpA6XyWgCCAAAmIgAomKG+bNoIZjqAtbOWMYhm1hiI6ce/icCeAAAAAAAAAAAAAAAAAAAAAAAAAAAAAA==

> <PUBCHEM_IUPAC_OPENEYE_NAME>
N-[(1S,4R)-4-[(4-fluorophenyl)methyl]-1-isopropyl-5-[[(1S)-1-[(E)-(5-methyl-2-oxo-tetrahydrofuran-3-ylidene)methyl]-2-[(3S)-2-oxopyrrolidin-3-yl]ethyl]amino]-2,5-dioxo-pentyl]-5-methyl-isoxazole-3-carboxamide

> <PUBCHEM_IUPAC_CAS_NAME>
N-[(3S,6R)-6-[(4-fluorophenyl)methyl]-2-methyl-7-[[(1E,2S)-1-(5-methyl-2-oxo-3-oxolanylidene)-3-[(3S)-2-oxo-3-pyrrolidinyl]propan-2-yl]amino]-4,7-dioxoheptan-3-yl]-5-methyl-3-isoxazolecarboxamide

> <PUBCHEM_IUPAC_NAME_MARKUP>
<I>N</I>-[(3<I>S</I>,6<I>R</I>)-6-[(4-fluorophenyl)methyl]-2-methyl-7-[[(1<I>E</I>,2<I>S</I>)-1-(5-methyl-2-oxooxolan-3-ylidene)-3-[(3<I>S</I>)-2-oxopyrrolidin-3-yl]propan-2-yl]amino]-4,7-dioxoheptan-3-yl]-5-methyl-1,2-oxazole-3-carboxamide

> <PUBCHEM_IUPAC_NAME>
N-[(3S,6R)-6-[(4-fluorophenyl)methyl]-2-methyl-7-[[(1E,2S)-1-(5-methyl-2-oxooxolan-3-ylidene)-3-[(3S)-2-oxopyrrolidin-3-yl]propan-2-yl]amino]-4,7-dioxoheptan-3-yl]-5-methyl-1,2-oxazole-3-carboxamide

> <PUBCHEM_IUPAC_SYSTEMATIC_NAME>
N-[(3S,6R)-6-[(4-fluorophenyl)methyl]-2-methyl-7-[[(1E,2S)-1-(5-methyl-2-oxidanylidene-oxolan-3-ylidene)-3-[(3S)-2-oxidanylidenepyrrolidin-3-yl]propan-2-yl]amino]-4,7-bis(oxidanylidene)heptan-3-yl]-5-methyl-1,2-oxazole-3-carboxamide

> <PUBCHEM_IUPAC_TRADITIONAL_NAME>
N-[(1S,4R)-4-(4-fluorobenzyl)-1-isopropyl-2,5-diketo-5-[[(1S)-1-[(E)-(2-keto-5-methyl-tetrahydrofuran-3-ylidene)methyl]-2-[(3S)-2-ketopyrrolidin-3-yl]ethyl]amino]pentyl]-5-methyl-isoxazole-3-carboxamide

> <PUBCHEM_IUPAC_INCHI>
InChI=1S/C32H39FN4O7/c1-17(2)28(36-31(41)26-12-19(4)44-37-26)27(38)16-22(13-20-5-7-24(33)8-6-20)30(40)35-25(14-21-9-10-34-29(21)39)15-23-11-18(3)43-32(23)42/h5-8,12,15,17-18,21-22,25,28H,9-11,13-14,16H2,1-4H3,(H,34,39)(H,35,40)(H,36,41)/b23-15+/t18?,21-,22+,25-,28-/m0/s1

> <PUBCHEM_IUPAC_INCHIKEY>
LOCODPBHTOJRKZ-PRYZRLKKSA-N

> <PUBCHEM_XLOGP3_AA>
3.2

> <PUBCHEM_EXACT_MASS>
610.280278

> <PUBCHEM_MOLECULAR_FORMULA>
C32H39FN4O7

> <PUBCHEM_MOLECULAR_WEIGHT>
610.7

> <PUBCHEM_OPENEYE_CAN_SMILES>
CC1CC(=CC(CC2CCNC2=O)NC(=O)C(CC3=CC=C(C=C3)F)CC(=O)C(C(C)C)NC(=O)C4=NOC(=C4)C)C(=O)O1

> <PUBCHEM_OPENEYE_ISO_SMILES>
CC1C/C(=C\[C@H](C[C@@H]2CCNC2=O)NC(=O)[C@H](CC3=CC=C(C=C3)F)CC(=O)[C@H](C(C)C)NC(=O)C4=NOC(=C4)C)/C(=O)O1

> <PUBCHEM_CACTVS_TPSA>
157

> <PUBCHEM_MONOISOTOPIC_WEIGHT>
610.280278

> <PUBCHEM_TOTAL_CHARGE>
0

> <PUBCHEM_HEAVY_ATOM_COUNT>
44

> <PUBCHEM_ATOM_DEF_STEREO_COUNT>
4

> <PUBCHEM_ATOM_UDEF_STEREO_COUNT>
1

> <PUBCHEM_BOND_DEF_STEREO_COUNT>
1

> <PUBCHEM_BOND_UDEF_STEREO_COUNT>
0

> <PUBCHEM_ISOTOPIC_ATOM_COUNT>
0

> <PUBCHEM_COMPONENT_COUNT>
1

> <PUBCHEM_CACTVS_TAUTO_COUNT>
-1

> <PUBCHEM_COORDINATE_TYPE>
1
5
255

> <PUBCHEM_BONDANNOTATIONS>
15  10  6
25  11  5
12  41  8
13  14  6
19  21  5
29  34  3
31  35  8
31  36  8
35  38  8
36  39  8
38  40  8
39  40  8
41  42  8
42  43  8
8  12  8
8  43  8

$$$$
127053015
  -OEChem-02212016592D

 82 85  0     1  0  0  0  0  0999 V2000
    6.8052   -2.5400    0.0000 O   0  0  0  0  0  0  0  0  0  0  0  0
    5.4641    0.5332    0.0000 O   0  0  0  0  0  0  0  0  0  0  0  0
    9.5840    0.0861    0.0000 O   0  0  0  0  0  0  0  0  0  0  0  0
    2.0000    1.5332    0.0000 O   0  0  0  0  0  0  0  0  0  0  0  0
    7.8052    2.6562    0.0000 O   0  0  0  0  0  0  0  0  0  0  0  0
    2.3660    4.5720    0.0000 O   0  0  0  0  0  0  0  0  0  0  0  0
    9.3052    1.7902    0.0000 O   0  0  0  0  0  0  0  0  0  0  0  0
    4.5981   -0.9668    0.0000 N   0  0  0  0  0  0  0  0  0  0  0  0
    6.8052   -0.8079    0.0000 N   0  0  0  0  0  0  0  0  0  0  0  0
    3.7320    1.5332    0.0000 N   0  0  0  0  0  0  0  0  0  0  0  0
   10.8440   -1.1739    0.0000 N   0  0  0  0  0  0  0  0  0  0  0  0
    2.0570    3.6210    0.0000 N   0  0  0  0  0  0  0  0  0  0  0  0
    4.5981   -2.3810    0.0000 C   0  0  2  0  0  0  0  0  0  0  0  0
    5.3052   -1.6739    0.0000 C   0  0  1  0  0  0  0  0  0  0  0  0
    3.8910   -1.6739    0.0000 C   0  0  0  0  0  0  0  0  0  0  0  0
    4.5981   -3.3810    0.0000 C   0  0  0  0  0  0  0  0  0  0  0  0
    6.3052   -1.6739    0.0000 C   0  0  0  0  0  0  0  0  0  0  0  0
    4.5981    0.0332    0.0000 C   0  0  0  0  0  0  0  0  0  0  0  0
    3.7320    0.5332    0.0000 C   0  0  2  0  0  0  0  0  0  0  0  0
    7.8052   -0.8079    0.0000 C   0  0  1  0  0  0  0  0  0  0  0  0
    2.8660    0.0332    0.0000 C   0  0  0  0  0  0  0  0  0  0  0  0
    8.3052   -1.6739    0.0000 C   0  0  0  0  0  0  0  0  0  0  0  0
    9.3052   -1.6739    0.0000 C   0  0  2  0  0  0  0  0  0  0  0  0
    3.7320   -3.8810    0.0000 C   0  0  0  0  0  0  0  0  0  0  0  0
    5.4641   -3.8810    0.0000 C   0  0  0  0  0  0  0  0  0  0  0  0
    9.8930   -2.4830    0.0000 C   0  0  0  0  0  0  0  0  0  0  0  0
   10.8440   -2.1739    0.0000 C   0  0  0  0  0  0  0  0  0  0  0  0
    9.8930   -0.8649    0.0000 C   0  0  0  0  0  0  0  0  0  0  0  0
    2.0000    0.5332    0.0000 C   0  0  0  0  0  0  0  0  0  0  0  0
    2.8660   -0.9668    0.0000 C   0  0  0  0  0  0  0  0  0  0  0  0
    8.3052    0.0581    0.0000 C   0  0  0  0  0  0  0  0  0  0  0  0
    3.7320   -4.8810    0.0000 C   0  0  0  0  0  0  0  0  0  0  0  0
    5.4641   -4.8810    0.0000 C   0  0  0  0  0  0  0  0  0  0  0  0
    4.5981   -5.3810    0.0000 C   0  0  0  0  0  0  0  0  0  0  0  0
    2.8660    2.0332    0.0000 C   0  0  0  0  0  0  0  0  0  0  0  0
    7.8052    0.9241    0.0000 C   0  0  0  0  0  0  0  0  0  0  0  0
    2.8660    3.0332    0.0000 C   0  0  0  0  0  0  0  0  0  0  0  0
    8.3052    1.7902    0.0000 C   0  0  0  0  0  0  0  0  0  0  0  0
    3.6750    3.6210    0.0000 C   0  0  0  0  0  0  0  0  0  0  0  0
    3.3660    4.5720    0.0000 C   0  0  0  0  0  0  0  0  0  0  0  0
    8.3052    3.5222    0.0000 C   0  0  0  0  0  0  0  0  0  0  0  0
    3.9538    5.3810    0.0000 C   0  0  0  0  0  0  0  0  0  0  0  0
    7.8052    4.3882    0.0000 C   0  0  0  0  0  0  0  0  0  0  0  0
    5.1709   -2.6183    0.0000 H   0  0  0  0  0  0  0  0  0  0  0  0
    5.5424   -1.1011    0.0000 H   0  0  0  0  0  0  0  0  0  0  0  0
    3.4526   -1.2355    0.0000 H   0  0  0  0  0  0  0  0  0  0  0  0
    3.4526   -2.1123    0.0000 H   0  0  0  0  0  0  0  0  0  0  0  0
    4.2690    0.8432    0.0000 H   0  0  0  0  0  0  0  0  0  0  0  0
    7.4952   -1.3448    0.0000 H   0  0  0  0  0  0  0  0  0  0  0  0
    6.4952   -0.2710    0.0000 H   0  0  0  0  0  0  0  0  0  0  0  0
    2.8660    0.6532    0.0000 H   0  0  0  0  0  0  0  0  0  0  0  0
    7.7226   -1.8860    0.0000 H   0  0  0  0  0  0  0  0  0  0  0  0
    8.4128   -2.2845    0.0000 H   0  0  0  0  0  0  0  0  0  0  0  0
    9.0237   -1.1215    0.0000 H   0  0  0  0  0  0  0  0  0  0  0  0
    3.1951   -3.5710    0.0000 H   0  0  0  0  0  0  0  0  0  0  0  0
    6.0010   -3.5710    0.0000 H   0  0  0  0  0  0  0  0  0  0  0  0
    9.3560   -2.7930    0.0000 H   0  0  0  0  0  0  0  0  0  0  0  0
   10.1451   -3.0493    0.0000 H   0  0  0  0  0  0  0  0  0  0  0  0
    4.2690    1.8432    0.0000 H   0  0  0  0  0  0  0  0  0  0  0  0
   10.9729   -2.7804    0.0000 H   0  0  0  0  0  0  0  0  0  0  0  0
   11.4606   -2.1091    0.0000 H   0  0  0  0  0  0  0  0  0  0  0  0
    2.3100    1.0701    0.0000 H   0  0  0  0  0  0  0  0  0  0  0  0
    1.4631    0.8432    0.0000 H   0  0  0  0  0  0  0  0  0  0  0  0
    1.6900   -0.0038    0.0000 H   0  0  0  0  0  0  0  0  0  0  0  0
    2.2460   -0.9668    0.0000 H   0  0  0  0  0  0  0  0  0  0  0  0
    2.8660   -1.5868    0.0000 H   0  0  0  0  0  0  0  0  0  0  0  0
    3.4860   -0.9668    0.0000 H   0  0  0  0  0  0  0  0  0  0  0  0
    8.9252    0.0581    0.0000 H   0  0  0  0  0  0  0  0  0  0  0  0
    3.1951   -5.1910    0.0000 H   0  0  0  0  0  0  0  0  0  0  0  0
    6.0010   -5.1910    0.0000 H   0  0  0  0  0  0  0  0  0  0  0  0
   11.3456   -0.8095    0.0000 H   0  0  0  0  0  0  0  0  0  0  0  0
    4.5981   -6.0010    0.0000 H   0  0  0  0  0  0  0  0  0  0  0  0
    7.1852    0.9241    0.0000 H   0  0  0  0  0  0  0  0  0  0  0  0
    4.2647    3.4294    0.0000 H   0  0  0  0  0  0  0  0  0  0  0  0
    8.7801    3.1237    0.0000 H   0  0  0  0  0  0  0  0  0  0  0  0
    8.7801    3.9208    0.0000 H   0  0  0  0  0  0  0  0  0  0  0  0
    4.4554    5.0166    0.0000 H   0  0  0  0  0  0  0  0  0  0  0  0
    4.3182    5.8826    0.0000 H   0  0  0  0  0  0  0  0  0  0  0  0
    3.4522    5.7455    0.0000 H   0  0  0  0  0  0  0  0  0  0  0  0
    8.3421    4.6982    0.0000 H   0  0  0  0  0  0  0  0  0  0  0  0
    7.4952    4.9252    0.0000 H   0  0  0  0  0  0  0  0  0  0  0  0
    7.2682    4.0782    0.0000 H   0  0  0  0  0  0  0  0  0  0  0  0
  1 17  2  0  0  0  0
  2 18  2  0  0  0  0
  3 28  2  0  0  0  0
  4 35  2  0  0  0  0
  5 38  1  0  0  0  0
  5 41  1  0  0  0  0
  6 12  1  0  0  0  0
  6 40  1  0  0  0  0
  7 38  2  0  0  0  0
  8 14  1  0  0  0  0
  8 15  1  0  0  0  0
  8 18  1  0  0  0  0
  9 17  1  0  0  0  0
 20  9  1  6  0  0  0
  9 50  1  0  0  0  0
 19 10  1  6  0  0  0
 10 35  1  0  0  0  0
 10 59  1  0  0  0  0
 11 27  1  0  0  0  0
 11 28  1  0  0  0  0
 11 71  1  0  0  0  0
 12 37  2  0  0  0  0
 13 14  1  0  0  0  0
 13 15  1  0  0  0  0
 13 16  1  1  0  0  0
 13 44  1  0  0  0  0
 14 17  1  6  0  0  0
 14 45  1  0  0  0  0
 15 46  1  0  0  0  0
 15 47  1  0  0  0  0
 16 24  2  0  0  0  0
 16 25  1  0  0  0  0
 18 19  1  0  0  0  0
 19 21  1  0  0  0  0
 19 48  1  0  0  0  0
 20 22  1  0  0  0  0
 20 31  1  0  0  0  0
 20 49  1  0  0  0  0
 21 29  1  0  0  0  0
 21 30  1  0  0  0  0
 21 51  1  0  0  0  0
 23 22  1  1  0  0  0
 22 52  1  0  0  0  0
 22 53  1  0  0  0  0
 23 26  1  0  0  0  0
 23 28  1  0  0  0  0
 23 54  1  0  0  0  0
 24 32  1  0  0  0  0
 24 55  1  0  0  0  0
 25 33  2  0  0  0  0
 25 56  1  0  0  0  0
 26 27  1  0  0  0  0
 26 57  1  0  0  0  0
 26 58  1  0  0  0  0
 27 60  1  0  0  0  0
 27 61  1  0  0  0  0
 29 62  1  0  0  0  0
 29 63  1  0  0  0  0
 29 64  1  0  0  0  0
 30 65  1  0  0  0  0
 30 66  1  0  0  0  0
 30 67  1  0  0  0  0
 31 36  2  0  0  0  0
 31 68  1  0  0  0  0
 32 34  2  0  0  0  0
 32 69  1  0  0  0  0
 33 34  1  0  0  0  0
 33 70  1  0  0  0  0
 34 72  1  0  0  0  0
 35 37  1  0  0  0  0
 36 38  1  0  0  0  0
 36 73  1  0  0  0  0
 37 39  1  0  0  0  0
 39 40  2  0  0  0  0
 39 74  1  0  0  0  0
 40 42  1  0  0  0  0
 41 43  1  0  0  0  0
 41 75  1  0  0  0  0
 41 76  1  0  0  0  0
 42 77  1  0  0  0  0
 42 78  1  0  0  0  0
 42 79  1  0  0  0  0
 43 80  1  0  0  0  0
 43 81  1  0  0  0  0
 43 82  1  0  0  0  0
M  END
> <PUBCHEM_COMPOUND_CID>
127053015

> <PUBCHEM_COMPOUND_CANONICALIZED>
1

> <PUBCHEM_CACTVS_COMPLEXITY>
1060

> <PUBCHEM_CACTVS_HBOND_ACCEPTOR>
8

> <PUBCHEM_CACTVS_HBOND_DONOR>
3

> <PUBCHEM_CACTVS_ROTATABLE_BOND>
13

> <PUBCHEM_CACTVS_SUBSKEYS>
AAADcfB7uAAAAAAAAAAAAAAAAABYAWLAAAAwAAAAAAAAAAABwAAAHgAUAAAADSzhngYyjJPQBACpA6XyWgCCAAAmIgAomKG+bNoIZjqAtbOWMYhmlhiI6cc/iMCOgAAAAAAAAAAAAAAAAAAAAAAAAAAAAA==

> <PUBCHEM_IUPAC_OPENEYE_NAME>
ethyl (E,4S)-4-[[(2S,3S)-1-[(2S)-3-methyl-2-[(5-methylisoxazole-3-carbonyl)amino]butanoyl]-3-phenyl-azetidine-2-carbonyl]amino]-5-[(3S)-2-oxopyrrolidin-3-yl]pent-2-enoate

> <PUBCHEM_IUPAC_CAS_NAME>
(E,4S)-4-[[[(2S,3S)-1-[(2S)-3-methyl-2-[[(5-methyl-3-isoxazolyl)-oxomethyl]amino]-1-oxobutyl]-3-phenyl-2-azetidinyl]-oxomethyl]amino]-5-[(3S)-2-oxo-3-pyrrolidinyl]-2-pentenoic acid ethyl ester

> <PUBCHEM_IUPAC_NAME_MARKUP>
ethyl (<I>E</I>,4<I>S</I>)-4-[[(2<I>S</I>,3<I>S</I>)-1-[(2<I>S</I>)-3-methyl-2-[(5-methyl-1,2-oxazole-3-carbonyl)amino]butanoyl]-3-phenylazetidine-2-carbonyl]amino]-5-[(3<I>S</I>)-2-oxopyrrolidin-3-yl]pent-2-enoate

> <PUBCHEM_IUPAC_NAME>
ethyl (E,4S)-4-[[(2S,3S)-1-[(2S)-3-methyl-2-[(5-methyl-1,2-oxazole-3-carbonyl)amino]butanoyl]-3-phenylazetidine-2-carbonyl]amino]-5-[(3S)-2-oxopyrrolidin-3-yl]pent-2-enoate

> <PUBCHEM_IUPAC_SYSTEMATIC_NAME>
ethyl (E,4S)-4-[[(2S,3S)-1-[(2S)-3-methyl-2-[(5-methyl-1,2-oxazol-3-yl)carbonylamino]butanoyl]-3-phenyl-azetidin-2-yl]carbonylamino]-5-[(3S)-2-oxidanylidenepyrrolidin-3-yl]pent-2-enoate

> <PUBCHEM_IUPAC_TRADITIONAL_NAME>
(E,4S)-5-[(3S)-2-ketopyrrolidin-3-yl]-4-[[(2S,3S)-1-[(2S)-3-methyl-2-[(5-methylisoxazole-3-carbonyl)amino]butanoyl]-3-phenyl-azetidine-2-carbonyl]amino]pent-2-enoic acid ethyl ester

> <PUBCHEM_IUPAC_INCHI>
InChI=1S/C31H39N5O7/c1-5-42-25(37)12-11-22(16-21-13-14-32-28(21)38)33-30(40)27-23(20-9-7-6-8-10-20)17-36(27)31(41)26(18(2)3)34-29(39)24-15-19(4)43-35-24/h6-12,15,18,21-23,26-27H,5,13-14,16-17H2,1-4H3,(H,32,38)(H,33,40)(H,34,39)/b12-11+/t21-,22+,23+,26-,27-/m0/s1

> <PUBCHEM_IUPAC_INCHIKEY>
VDGWYLZESNRWPH-IBMNWZPWSA-N

> <PUBCHEM_XLOGP3_AA>
2.5

> <PUBCHEM_EXACT_MASS>
593.284949

> <PUBCHEM_MOLECULAR_FORMULA>
C31H39N5O7

> <PUBCHEM_MOLECULAR_WEIGHT>
593.7

> <PUBCHEM_OPENEYE_CAN_SMILES>
CCOC(=O)C=CC(CC1CCNC1=O)NC(=O)C2C(CN2C(=O)C(C(C)C)NC(=O)C3=NOC(=C3)C)C4=CC=CC=C4

> <PUBCHEM_OPENEYE_ISO_SMILES>
CCOC(=O)/C=C/[C@H](C[C@@H]1CCNC1=O)NC(=O)[C@@H]2[C@H](CN2C(=O)[C@H](C(C)C)NC(=O)C3=NOC(=C3)C)C4=CC=CC=C4

> <PUBCHEM_CACTVS_TPSA>
160

> <PUBCHEM_MONOISOTOPIC_WEIGHT>
593.284949

> <PUBCHEM_TOTAL_CHARGE>
0

> <PUBCHEM_HEAVY_ATOM_COUNT>
43

> <PUBCHEM_ATOM_DEF_STEREO_COUNT>
5

> <PUBCHEM_ATOM_UDEF_STEREO_COUNT>
0

> <PUBCHEM_BOND_DEF_STEREO_COUNT>
1

> <PUBCHEM_BOND_UDEF_STEREO_COUNT>
0

> <PUBCHEM_ISOTOPIC_ATOM_COUNT>
0

> <PUBCHEM_COMPONENT_COUNT>
1

> <PUBCHEM_CACTVS_TAUTO_COUNT>
-1

> <PUBCHEM_COORDINATE_TYPE>
1
5
255

> <PUBCHEM_BONDANNOTATIONS>
19  10  6
12  37  8
13  16  5
14  17  6
16  24  8
16  25  8
23  22  5
24  32  8
25  33  8
32  34  8
33  34  8
37  39  8
39  40  8
6  12  8
6  40  8
20  9  6

$$$$
129002154
  -OEChem-02212016592D

 45 47  0     1  0  0  0  0  0999 V2000
    2.0570    0.5957    0.0000 O   0  0  0  0  0  0  0  0  0  0  0  0
    7.8725    2.7172    0.0000 O   0  0  0  0  0  0  0  0  0  0  0  0
    6.5282   -0.3314    0.0000 O   0  0  0  0  0  0  0  0  0  0  0  0
    5.3692    0.9558    0.0000 N   0  0  0  0  0  0  0  0  0  0  0  0
    6.9589    2.3104    0.0000 N   0  0  0  0  0  0  0  0  0  0  0  0
    3.6750    0.5957    0.0000 C   0  0  2  0  0  0  0  0  0  0  0  0
    2.8660    0.0079    0.0000 C   0  0  1  0  0  0  0  0  0  0  0  0
    3.3660    1.5467    0.0000 C   0  0  0  0  0  0  0  0  0  0  0  0
    2.3660    1.5467    0.0000 C   0  0  0  0  0  0  0  0  0  0  0  0
    4.6261    0.2867    0.0000 C   0  0  0  0  0  0  0  0  0  0  0  0
    2.8660   -0.9921    0.0000 C   0  0  0  0  0  0  0  0  0  0  0  0
    2.0000   -1.4921    0.0000 C   0  0  0  0  0  0  0  0  0  0  0  0
    3.7320   -1.4921    0.0000 C   0  0  0  0  0  0  0  0  0  0  0  0
    6.3203    0.6468    0.0000 C   0  0  0  0  0  0  0  0  0  0  0  0
    2.0000   -2.4921    0.0000 C   0  0  0  0  0  0  0  0  0  0  0  0
    3.7320   -2.4921    0.0000 C   0  0  0  0  0  0  0  0  0  0  0  0
    7.0634    1.3159    0.0000 C   0  0  0  0  0  0  0  0  0  0  0  0
    2.8660   -2.9921    0.0000 C   0  0  0  0  0  0  0  0  0  0  0  0
    9.5361    2.0786    0.0000 C   0  0  0  0  0  0  0  0  0  0  0  0
    8.5416    1.9740    0.0000 C   0  0  0  0  0  0  0  0  0  0  0  0
    8.0416    1.1080    0.0000 C   0  0  0  0  0  0  0  0  0  0  0  0
    9.9428    2.9921    0.0000 C   0  0  0  0  0  0  0  0  0  0  0  0
   10.1239    1.2695    0.0000 C   0  0  0  0  0  0  0  0  0  0  0  0
    3.7720   -0.0167    0.0000 H   0  0  0  0  0  0  0  0  0  0  0  0
    3.4184   -0.2736    0.0000 H   0  0  0  0  0  0  0  0  0  0  0  0
    3.9725    1.6756    0.0000 H   0  0  0  0  0  0  0  0  0  0  0  0
    3.3012    2.1634    0.0000 H   0  0  0  0  0  0  0  0  0  0  0  0
    2.4308    2.1634    0.0000 H   0  0  0  0  0  0  0  0  0  0  0  0
    1.7596    1.6756    0.0000 H   0  0  0  0  0  0  0  0  0  0  0  0
    4.3350   -0.2608    0.0000 H   0  0  0  0  0  0  0  0  0  0  0  0
    5.1147   -0.0950    0.0000 H   0  0  0  0  0  0  0  0  0  0  0  0
    5.2403    1.5622    0.0000 H   0  0  0  0  0  0  0  0  0  0  0  0
    1.4631   -1.1821    0.0000 H   0  0  0  0  0  0  0  0  0  0  0  0
    4.2690   -1.1821    0.0000 H   0  0  0  0  0  0  0  0  0  0  0  0
    1.4631   -2.8021    0.0000 H   0  0  0  0  0  0  0  0  0  0  0  0
    4.2690   -2.8021    0.0000 H   0  0  0  0  0  0  0  0  0  0  0  0
    2.8660   -3.6121    0.0000 H   0  0  0  0  0  0  0  0  0  0  0  0
   10.1527    2.1434    0.0000 H   0  0  0  0  0  0  0  0  0  0  0  0
    8.2938    0.5416    0.0000 H   0  0  0  0  0  0  0  0  0  0  0  0
   10.5092    2.7399    0.0000 H   0  0  0  0  0  0  0  0  0  0  0  0
   10.1950    3.5585    0.0000 H   0  0  0  0  0  0  0  0  0  0  0  0
    9.3764    3.2443    0.0000 H   0  0  0  0  0  0  0  0  0  0  0  0
    9.6223    0.9051    0.0000 H   0  0  0  0  0  0  0  0  0  0  0  0
   10.4883    0.7679    0.0000 H   0  0  0  0  0  0  0  0  0  0  0  0
   10.6255    1.6340    0.0000 H   0  0  0  0  0  0  0  0  0  0  0  0
  1  7  1  0  0  0  0
  1  9  1  0  0  0  0
  2  5  1  0  0  0  0
  2 20  1  0  0  0  0
  3 14  2  0  0  0  0
  4 10  1  0  0  0  0
  4 14  1  0  0  0  0
  4 32  1  0  0  0  0
  5 17  2  0  0  0  0
  6  7  1  0  0  0  0
  6  8  1  0  0  0  0
  6 10  1  6  0  0  0
  6 24  1  0  0  0  0
  7 11  1  1  0  0  0
  7 25  1  0  0  0  0
  8  9  1  0  0  0  0
  8 26  1  0  0  0  0
  8 27  1  0  0  0  0
  9 28  1  0  0  0  0
  9 29  1  0  0  0  0
 10 30  1  0  0  0  0
 10 31  1  0  0  0  0
 11 12  2  0  0  0  0
 11 13  1  0  0  0  0
 12 15  1  0  0  0  0
 12 33  1  0  0  0  0
 13 16  2  0  0  0  0
 13 34  1  0  0  0  0
 14 17  1  0  0  0  0
 15 18  2  0  0  0  0
 15 35  1  0  0  0  0
 16 18  1  0  0  0  0
 16 36  1  0  0  0  0
 17 21  1  0  0  0  0
 18 37  1  0  0  0  0
 19 20  1  0  0  0  0
 19 22  1  0  0  0  0
 19 23  1  0  0  0  0
 19 38  1  0  0  0  0
 20 21  2  0  0  0  0
 21 39  1  0  0  0  0
 22 40  1  0  0  0  0
 22 41  1  0  0  0  0
 22 42  1  0  0  0  0
 23 43  1  0  0  0  0
 23 44  1  0  0  0  0
 23 45  1  0  0  0  0
M  END
> <PUBCHEM_COMPOUND_CID>
129002154

> <PUBCHEM_COMPOUND_CANONICALIZED>
1

> <PUBCHEM_CACTVS_COMPLEXITY>
396

> <PUBCHEM_CACTVS_HBOND_ACCEPTOR>
4

> <PUBCHEM_CACTVS_HBOND_DONOR>
1

> <PUBCHEM_CACTVS_ROTATABLE_BOND>
5

> <PUBCHEM_CACTVS_SUBSKEYS>
AAADceB7MAAAAAAAAAAAAAAAAAAAAWJAAAAwAAAAAAAAAAABwAAAHgAUAAAADRzhngYyhJLQBACpA6VyUgCCAAAmIgAomKG+bNoIZjqAtZuWMYhm1hmI6ce/yPAOAAAAAAAAAAAAAAAAAAAAAAAAAAAAAA==

> <PUBCHEM_IUPAC_OPENEYE_NAME>
5-isopropyl-N-[[(2S,3R)-2-phenyltetrahydrofuran-3-yl]methyl]isoxazole-3-carboxamide

> <PUBCHEM_IUPAC_CAS_NAME>
N-[[(2S,3R)-2-phenyl-3-oxolanyl]methyl]-5-propan-2-yl-3-isoxazolecarboxamide

> <PUBCHEM_IUPAC_NAME_MARKUP>
<I>N</I>-[[(2<I>S</I>,3<I>R</I>)-2-phenyloxolan-3-yl]methyl]-5-propan-2-yl-1,2-oxazole-3-carboxamide

> <PUBCHEM_IUPAC_NAME>
N-[[(2S,3R)-2-phenyloxolan-3-yl]methyl]-5-propan-2-yl-1,2-oxazole-3-carboxamide

> <PUBCHEM_IUPAC_SYSTEMATIC_NAME>
N-[[(2S,3R)-2-phenyloxolan-3-yl]methyl]-5-propan-2-yl-1,2-oxazole-3-carboxamide

> <PUBCHEM_IUPAC_TRADITIONAL_NAME>
5-isopropyl-N-[[(2S,3R)-2-phenyltetrahydrofuran-3-yl]methyl]isoxazole-3-carboxamide

> <PUBCHEM_IUPAC_INCHI>
InChI=1S/C18H22N2O3/c1-12(2)16-10-15(20-23-16)18(21)19-11-14-8-9-22-17(14)13-6-4-3-5-7-13/h3-7,10,12,14,17H,8-9,11H2,1-2H3,(H,19,21)/t14-,17-/m1/s1

> <PUBCHEM_IUPAC_INCHIKEY>
ZSMYUMHIEQEBOV-RHSMWYFYSA-N

> <PUBCHEM_XLOGP3_AA>
2.9

> <PUBCHEM_EXACT_MASS>
314.163043

> <PUBCHEM_MOLECULAR_FORMULA>
C18H22N2O3

> <PUBCHEM_MOLECULAR_WEIGHT>
314.4

> <PUBCHEM_OPENEYE_CAN_SMILES>
CC(C)C1=CC(=NO1)C(=O)NCC2CCOC2C3=CC=CC=C3

> <PUBCHEM_OPENEYE_ISO_SMILES>
CC(C)C1=CC(=NO1)C(=O)NC[C@H]2CCO[C@@H]2C3=CC=CC=C3

> <PUBCHEM_CACTVS_TPSA>
64.4

> <PUBCHEM_MONOISOTOPIC_WEIGHT>
314.163043

> <PUBCHEM_TOTAL_CHARGE>
0

> <PUBCHEM_HEAVY_ATOM_COUNT>
23

> <PUBCHEM_ATOM_DEF_STEREO_COUNT>
2

> <PUBCHEM_ATOM_UDEF_STEREO_COUNT>
0

> <PUBCHEM_BOND_DEF_STEREO_COUNT>
0

> <PUBCHEM_BOND_UDEF_STEREO_COUNT>
0

> <PUBCHEM_ISOTOPIC_ATOM_COUNT>
0

> <PUBCHEM_COMPONENT_COUNT>
1

> <PUBCHEM_CACTVS_TAUTO_COUNT>
-1

> <PUBCHEM_COORDINATE_TYPE>
1
5
255

> <PUBCHEM_BONDANNOTATIONS>
11  12  8
11  13  8
12  15  8
13  16  8
15  18  8
16  18  8
17  21  8
2  20  8
2  5  8
20  21  8
5  17  8
6  10  6
7  11  5

$$$$
129047943
  -OEChem-02212016592D

 53 54  0     1  0  0  0  0  0999 V2000
    3.7320   -1.4239    0.0000 O   0  0  0  0  0  0  0  0  0  0  0  0
    6.3301    1.0761    0.0000 O   0  0  0  0  0  0  0  0  0  0  0  0
    2.8660    0.0761    0.0000 O   0  0  0  0  0  0  0  0  0  0  0  0
    2.8660    1.0761    0.0000 O   0  0  0  0  0  0  0  0  0  0  0  0
    3.2320    4.1149    0.0000 O   0  0  0  0  0  0  0  0  0  0  0  0
    7.1962   -0.4239    0.0000 N   0  0  0  0  0  0  0  0  0  0  0  0
    4.5981    1.0761    0.0000 N   0  0  0  0  0  0  0  0  0  0  0  0
    2.9230    3.1639    0.0000 N   0  0  0  0  0  0  0  0  0  0  0  0
    8.0622    0.0761    0.0000 C   0  0  0  0  0  0  0  0  0  0  0  0
    5.4641   -0.4239    0.0000 C   0  0  0  0  0  0  0  0  0  0  0  0
    8.9282    0.5761    0.0000 C   0  0  0  0  0  0  0  0  0  0  0  0
    8.5622   -0.7900    0.0000 C   0  0  0  0  0  0  0  0  0  0  0  0
    7.5622    0.9421    0.0000 C   0  0  0  0  0  0  0  0  0  0  0  0
    4.5981    0.0761    0.0000 C   0  0  1  0  0  0  0  0  0  0  0  0
    6.3301    0.0761    0.0000 C   0  0  0  0  0  0  0  0  0  0  0  0
    3.7320   -0.4239    0.0000 C   0  0  0  0  0  0  0  0  0  0  0  0
    3.7320    1.5761    0.0000 C   0  0  0  0  0  0  0  0  0  0  0  0
    2.8660   -1.9239    0.0000 C   0  0  0  0  0  0  0  0  0  0  0  0
    3.7320    2.5761    0.0000 C   0  0  0  0  0  0  0  0  0  0  0  0
    2.8660   -2.9239    0.0000 C   0  0  0  0  0  0  0  0  0  0  0  0
    4.5411    3.1639    0.0000 C   0  0  0  0  0  0  0  0  0  0  0  0
    2.0000   -3.4239    0.0000 C   0  0  0  0  0  0  0  0  0  0  0  0
    3.7320   -3.4239    0.0000 C   0  0  0  0  0  0  0  0  0  0  0  0
    4.2320    4.1149    0.0000 C   0  0  0  0  0  0  0  0  0  0  0  0
    2.0000   -4.4239    0.0000 C   0  0  0  0  0  0  0  0  0  0  0  0
    3.7320   -4.4239    0.0000 C   0  0  0  0  0  0  0  0  0  0  0  0
    2.8660   -4.9239    0.0000 C   0  0  0  0  0  0  0  0  0  0  0  0
    4.8198    4.9239    0.0000 C   0  0  0  0  0  0  0  0  0  0  0  0
    7.1962   -1.0439    0.0000 H   0  0  0  0  0  0  0  0  0  0  0  0
    5.0656   -0.8989    0.0000 H   0  0  0  0  0  0  0  0  0  0  0  0
    5.8626   -0.8989    0.0000 H   0  0  0  0  0  0  0  0  0  0  0  0
    9.2382    0.0391    0.0000 H   0  0  0  0  0  0  0  0  0  0  0  0
    9.4651    0.8861    0.0000 H   0  0  0  0  0  0  0  0  0  0  0  0
    8.6182    1.1130    0.0000 H   0  0  0  0  0  0  0  0  0  0  0  0
    8.0252   -1.1000    0.0000 H   0  0  0  0  0  0  0  0  0  0  0  0
    8.8722   -1.3269    0.0000 H   0  0  0  0  0  0  0  0  0  0  0  0
    9.0991   -0.4800    0.0000 H   0  0  0  0  0  0  0  0  0  0  0  0
    8.0991    1.2521    0.0000 H   0  0  0  0  0  0  0  0  0  0  0  0
    7.2522    1.4790    0.0000 H   0  0  0  0  0  0  0  0  0  0  0  0
    7.0252    0.6321    0.0000 H   0  0  0  0  0  0  0  0  0  0  0  0
    5.1350    0.3861    0.0000 H   0  0  0  0  0  0  0  0  0  0  0  0
    5.1350    1.3861    0.0000 H   0  0  0  0  0  0  0  0  0  0  0  0
    2.6540   -1.3413    0.0000 H   0  0  0  0  0  0  0  0  0  0  0  0
    2.2554   -2.0316    0.0000 H   0  0  0  0  0  0  0  0  0  0  0  0
    5.1307    2.9723    0.0000 H   0  0  0  0  0  0  0  0  0  0  0  0
    1.4631   -3.1139    0.0000 H   0  0  0  0  0  0  0  0  0  0  0  0
    4.2690   -3.1139    0.0000 H   0  0  0  0  0  0  0  0  0  0  0  0
    1.4631   -4.7339    0.0000 H   0  0  0  0  0  0  0  0  0  0  0  0
    4.2690   -4.7339    0.0000 H   0  0  0  0  0  0  0  0  0  0  0  0
    2.8660   -5.5439    0.0000 H   0  0  0  0  0  0  0  0  0  0  0  0
    5.3214    4.5595    0.0000 H   0  0  0  0  0  0  0  0  0  0  0  0
    5.1843    5.4255    0.0000 H   0  0  0  0  0  0  0  0  0  0  0  0
    4.3182    5.2884    0.0000 H   0  0  0  0  0  0  0  0  0  0  0  0
  1 16  1  0  0  0  0
  1 18  1  0  0  0  0
  2 15  2  0  0  0  0
  3 16  2  0  0  0  0
  4 17  2  0  0  0  0
  5  8  1  0  0  0  0
  5 24  1  0  0  0  0
  6  9  1  0  0  0  0
  6 15  1  0  0  0  0
  6 29  1  0  0  0  0
 14  7  1  1  0  0  0
  7 17  1  0  0  0  0
  7 42  1  0  0  0  0
  8 19  2  0  0  0  0
  9 11  1  0  0  0  0
  9 12  1  0  0  0  0
  9 13  1  0  0  0  0
 10 14  1  0  0  0  0
 10 15  1  0  0  0  0
 10 30  1  0  0  0  0
 10 31  1  0  0  0  0
 11 32  1  0  0  0  0
 11 33  1  0  0  0  0
 11 34  1  0  0  0  0
 12 35  1  0  0  0  0
 12 36  1  0  0  0  0
 12 37  1  0  0  0  0
 13 38  1  0  0  0  0
 13 39  1  0  0  0  0
 13 40  1  0  0  0  0
 14 16  1  0  0  0  0
 14 41  1  0  0  0  0
 17 19  1  0  0  0  0
 18 20  1  0  0  0  0
 18 43  1  0  0  0  0
 18 44  1  0  0  0  0
 19 21  1  0  0  0  0
 20 22  2  0  0  0  0
 20 23  1  0  0  0  0
 21 24  2  0  0  0  0
 21 45  1  0  0  0  0
 22 25  1  0  0  0  0
 22 46  1  0  0  0  0
 23 26  2  0  0  0  0
 23 47  1  0  0  0  0
 24 28  1  0  0  0  0
 25 27  2  0  0  0  0
 25 48  1  0  0  0  0
 26 27  1  0  0  0  0
 26 49  1  0  0  0  0
 27 50  1  0  0  0  0
 28 51  1  0  0  0  0
 28 52  1  0  0  0  0
 28 53  1  0  0  0  0
M  END
> <PUBCHEM_COMPOUND_CID>
129047943

> <PUBCHEM_COMPOUND_CANONICALIZED>
1

> <PUBCHEM_CACTVS_COMPLEXITY>
555

> <PUBCHEM_CACTVS_HBOND_ACCEPTOR>
6

> <PUBCHEM_CACTVS_HBOND_DONOR>
2

> <PUBCHEM_CACTVS_ROTATABLE_BOND>
9

> <PUBCHEM_CACTVS_SUBSKEYS>
AAADceB7OAAAAAAAAAAAAAAAAAAAAWAAAAAwAAAAAAAAAAABwAAAHgAUAAAADKzhngYyjJLQBACpA6XyWgCCAAAmIgAomKG+bNoKZjqA9buXMYhm1hmY6ce/wCAOAAAAAAAAAAAAAAAAAAAAAAAAAAAAAA==

> <PUBCHEM_IUPAC_OPENEYE_NAME>
benzyl (2S)-4-(tert-butylamino)-2-[(5-methylisoxazole-3-carbonyl)amino]-4-oxo-butanoate

> <PUBCHEM_IUPAC_CAS_NAME>
(2S)-4-(tert-butylamino)-2-[[(5-methyl-3-isoxazolyl)-oxomethyl]amino]-4-oxobutanoic acid (phenylmethyl) ester

> <PUBCHEM_IUPAC_NAME_MARKUP>
benzyl (2<I>S</I>)-4-(<I>tert</I>-butylamino)-2-[(5-methyl-1,2-oxazole-3-carbonyl)amino]-4-oxobutanoate

> <PUBCHEM_IUPAC_NAME>
benzyl (2S)-4-(tert-butylamino)-2-[(5-methyl-1,2-oxazole-3-carbonyl)amino]-4-oxobutanoate

> <PUBCHEM_IUPAC_SYSTEMATIC_NAME>
(phenylmethyl) (2S)-4-(tert-butylamino)-2-[(5-methyl-1,2-oxazol-3-yl)carbonylamino]-4-oxidanylidene-butanoate

> <PUBCHEM_IUPAC_TRADITIONAL_NAME>
(2S)-4-(tert-butylamino)-4-keto-2-[(5-methylisoxazole-3-carbonyl)amino]butyric acid benzyl ester

> <PUBCHEM_IUPAC_INCHI>
InChI=1S/C20H25N3O5/c1-13-10-15(23-28-13)18(25)21-16(11-17(24)22-20(2,3)4)19(26)27-12-14-8-6-5-7-9-14/h5-10,16H,11-12H2,1-4H3,(H,21,25)(H,22,24)/t16-/m0/s1

> <PUBCHEM_IUPAC_INCHIKEY>
MGQSPUIHGRMTBW-INIZCTEOSA-N

> <PUBCHEM_XLOGP3_AA>
2.1

> <PUBCHEM_EXACT_MASS>
387.179421

> <PUBCHEM_MOLECULAR_FORMULA>
C20H25N3O5

> <PUBCHEM_MOLECULAR_WEIGHT>
387.4

> <PUBCHEM_OPENEYE_CAN_SMILES>
CC1=CC(=NO1)C(=O)NC(CC(=O)NC(C)(C)C)C(=O)OCC2=CC=CC=C2

> <PUBCHEM_OPENEYE_ISO_SMILES>
CC1=CC(=NO1)C(=O)N[C@@H](CC(=O)NC(C)(C)C)C(=O)OCC2=CC=CC=C2

> <PUBCHEM_CACTVS_TPSA>
111

> <PUBCHEM_MONOISOTOPIC_WEIGHT>
387.179421

> <PUBCHEM_TOTAL_CHARGE>
0

> <PUBCHEM_HEAVY_ATOM_COUNT>
28

> <PUBCHEM_ATOM_DEF_STEREO_COUNT>
1

> <PUBCHEM_ATOM_UDEF_STEREO_COUNT>
0

> <PUBCHEM_BOND_DEF_STEREO_COUNT>
0

> <PUBCHEM_BOND_UDEF_STEREO_COUNT>
0

> <PUBCHEM_ISOTOPIC_ATOM_COUNT>
0

> <PUBCHEM_COMPONENT_COUNT>
1

> <PUBCHEM_CACTVS_TAUTO_COUNT>
-1

> <PUBCHEM_COORDINATE_TYPE>
1
5
255

> <PUBCHEM_BONDANNOTATIONS>
19  21  8
20  22  8
20  23  8
21  24  8
22  25  8
23  26  8
25  27  8
26  27  8
5  24  8
5  8  8
14  7  5
8  19  8

$$$$
129900301
  -OEChem-02212016592D

 99102  0     1  0  0  0  0  0999 V2000
    5.5981    0.4217    0.0000 S   0  3  3  0  0  0  0  0  0  0  0  0
    3.7320   -1.0782    0.0000 O   0  0  0  0  0  0  0  0  0  0  0  0
    2.8660    0.4217    0.0000 O   0  0  0  0  0  0  0  0  0  0  0  0
    5.9921    4.0665    0.0000 O   0  0  0  0  0  0  0  0  0  0  0  0
    6.8301    1.2878    0.0000 O   0  0  0  0  0  0  0  0  0  0  0  0
    7.6962    0.7878    0.0000 O   0  0  0  0  0  0  0  0  0  0  0  0
   11.1603   -0.2122    0.0000 O   0  0  0  0  0  0  0  0  0  0  0  0
   10.2942   -3.7122    0.0000 O   0  0  0  0  0  0  0  0  0  0  0  0
   13.6090   -4.0486    0.0000 O   0  0  0  0  0  0  0  0  0  0  0  0
    5.9641    2.7878    0.0000 N   0  0  0  0  0  0  0  0  0  0  0  0
    4.7320    5.3266    0.0000 N   0  0  0  0  0  0  0  0  0  0  0  0
    8.5622    2.2878    0.0000 N   0  0  0  0  0  0  0  0  0  0  0  0
    9.4282   -0.2122    0.0000 N   0  0  0  0  0  0  0  0  0  0  0  0
   11.1603   -2.2122    0.0000 N   0  0  0  0  0  0  0  0  0  0  0  0
   12.9398   -3.3055    0.0000 N   0  0  0  0  0  0  0  0  0  0  0  0
    5.0981    1.2878    0.0000 C   0  0  1  0  0  0  0  0  0  0  0  0
    4.5981    0.4217    0.0000 C   0  0  2  0  0  0  0  0  0  0  0  0
    5.0981    2.2878    0.0000 C   0  0  2  0  0  0  0  0  0  0  0  0
    4.2320    2.7878    0.0000 C   0  0  0  0  0  0  0  0  0  0  0  0
    4.2320    3.7878    0.0000 C   0  0  2  0  0  0  0  0  0  0  0  0
    3.7320   -0.0783    0.0000 C   0  0  0  0  0  0  0  0  0  0  0  0
    3.4230    4.3756    0.0000 C   0  0  0  0  0  0  0  0  0  0  0  0
    5.0411    4.3756    0.0000 C   0  0  0  0  0  0  0  0  0  0  0  0
    3.7320    5.3266    0.0000 C   0  0  0  0  0  0  0  0  0  0  0  0
    6.8301    2.2878    0.0000 C   0  0  0  0  0  0  0  0  0  0  0  0
    7.6962    2.7878    0.0000 C   0  0  2  0  0  0  0  0  0  0  0  0
    7.6962    3.7878    0.0000 C   0  0  0  0  0  0  0  0  0  0  0  0
    2.8660   -1.5782    0.0000 C   0  0  0  0  0  0  0  0  0  0  0  0
    8.5622    4.2878    0.0000 C   0  0  0  0  0  0  0  0  0  0  0  0
    8.5622    1.2878    0.0000 C   0  0  0  0  0  0  0  0  0  0  0  0
    2.8660   -2.5782    0.0000 C   0  0  0  0  0  0  0  0  0  0  0  0
    8.5622    5.2878    0.0000 C   0  0  0  0  0  0  0  0  0  0  0  0
    9.4282    3.7878    0.0000 C   0  0  0  0  0  0  0  0  0  0  0  0
    9.4282    0.7878    0.0000 C   0  0  2  0  0  0  0  0  0  0  0  0
   10.2942    1.2878    0.0000 C   0  0  0  0  0  0  0  0  0  0  0  0
    2.0000   -3.0782    0.0000 C   0  0  0  0  0  0  0  0  0  0  0  0
    3.7320   -3.0782    0.0000 C   0  0  0  0  0  0  0  0  0  0  0  0
   11.1603    0.7878    0.0000 C   0  0  0  0  0  0  0  0  0  0  0  0
   10.2942    2.2878    0.0000 C   0  0  0  0  0  0  0  0  0  0  0  0
   10.2942   -0.7122    0.0000 C   0  0  0  0  0  0  0  0  0  0  0  0
    2.0000   -4.0782    0.0000 C   0  0  0  0  0  0  0  0  0  0  0  0
    3.7320   -4.0782    0.0000 C   0  0  0  0  0  0  0  0  0  0  0  0
    2.8660   -4.5782    0.0000 C   0  0  0  0  0  0  0  0  0  0  0  0
   10.2942   -1.7122    0.0000 C   0  0  2  0  0  0  0  0  0  0  0  0
    9.4282   -2.2122    0.0000 C   0  0  0  0  0  0  0  0  0  0  0  0
   11.1603   -3.2122    0.0000 C   0  0  0  0  0  0  0  0  0  0  0  0
   12.0263   -3.7122    0.0000 C   0  0  0  0  0  0  0  0  0  0  0  0
   12.1308   -4.7068    0.0000 C   0  0  0  0  0  0  0  0  0  0  0  0
   13.1090   -4.9147    0.0000 C   0  0  0  0  0  0  0  0  0  0  0  0
   13.5157   -5.8282    0.0000 C   0  0  0  0  0  0  0  0  0  0  0  0
    5.9191    1.5078    0.0000 H   0  0  0  0  0  0  0  0  0  0  0  0
    4.7585   -0.1771    0.0000 H   0  0  0  0  0  0  0  0  0  0  0  0
    5.0981    2.9078    0.0000 H   0  0  0  0  0  0  0  0  0  0  0  0
    6.1350    0.1117    0.0000 H   0  0  0  0  0  0  0  0  0  0  0  0
    3.6215    2.8954    0.0000 H   0  0  0  0  0  0  0  0  0  0  0  0
    4.0200    2.2052    0.0000 H   0  0  0  0  0  0  0  0  0  0  0  0
    4.7845    3.5063    0.0000 H   0  0  0  0  0  0  0  0  0  0  0  0
    5.9641    3.4078    0.0000 H   0  0  0  0  0  0  0  0  0  0  0  0
    2.8566    4.6277    0.0000 H   0  0  0  0  0  0  0  0  0  0  0  0
    3.1130    3.8386    0.0000 H   0  0  0  0  0  0  0  0  0  0  0  0
    3.7969    5.9432    0.0000 H   0  0  0  0  0  0  0  0  0  0  0  0
    3.1256    5.4555    0.0000 H   0  0  0  0  0  0  0  0  0  0  0  0
    5.0965    5.8282    0.0000 H   0  0  0  0  0  0  0  0  0  0  0  0
    8.2331    3.0978    0.0000 H   0  0  0  0  0  0  0  0  0  0  0  0
    7.4841    4.3704    0.0000 H   0  0  0  0  0  0  0  0  0  0  0  0
    7.0856    3.6801    0.0000 H   0  0  0  0  0  0  0  0  0  0  0  0
    2.6540   -0.9956    0.0000 H   0  0  0  0  0  0  0  0  0  0  0  0
    2.2554   -1.6859    0.0000 H   0  0  0  0  0  0  0  0  0  0  0  0
    8.5622    3.6678    0.0000 H   0  0  0  0  0  0  0  0  0  0  0  0
    9.0991    2.5978    0.0000 H   0  0  0  0  0  0  0  0  0  0  0  0
    9.1822    5.2878    0.0000 H   0  0  0  0  0  0  0  0  0  0  0  0
    8.5622    5.9078    0.0000 H   0  0  0  0  0  0  0  0  0  0  0  0
    7.9422    5.2878    0.0000 H   0  0  0  0  0  0  0  0  0  0  0  0
    9.1182    3.2508    0.0000 H   0  0  0  0  0  0  0  0  0  0  0  0
    9.9651    3.4778    0.0000 H   0  0  0  0  0  0  0  0  0  0  0  0
    9.7382    4.3247    0.0000 H   0  0  0  0  0  0  0  0  0  0  0  0
    9.9651    0.4778    0.0000 H   0  0  0  0  0  0  0  0  0  0  0  0
    9.7573    1.5978    0.0000 H   0  0  0  0  0  0  0  0  0  0  0  0
    8.8913   -0.5222    0.0000 H   0  0  0  0  0  0  0  0  0  0  0  0
    1.4631   -2.7682    0.0000 H   0  0  0  0  0  0  0  0  0  0  0  0
    4.2690   -2.7682    0.0000 H   0  0  0  0  0  0  0  0  0  0  0  0
   10.8503    0.2508    0.0000 H   0  0  0  0  0  0  0  0  0  0  0  0
   11.6972    0.4778    0.0000 H   0  0  0  0  0  0  0  0  0  0  0  0
   11.4703    1.3247    0.0000 H   0  0  0  0  0  0  0  0  0  0  0  0
   10.9142    2.2878    0.0000 H   0  0  0  0  0  0  0  0  0  0  0  0
   10.2942    2.9078    0.0000 H   0  0  0  0  0  0  0  0  0  0  0  0
    9.6742    2.2878    0.0000 H   0  0  0  0  0  0  0  0  0  0  0  0
    1.4631   -4.3882    0.0000 H   0  0  0  0  0  0  0  0  0  0  0  0
    4.2690   -4.3882    0.0000 H   0  0  0  0  0  0  0  0  0  0  0  0
    2.8660   -5.1982    0.0000 H   0  0  0  0  0  0  0  0  0  0  0  0
   10.2942   -2.3322    0.0000 H   0  0  0  0  0  0  0  0  0  0  0  0
    9.1182   -1.6753    0.0000 H   0  0  0  0  0  0  0  0  0  0  0  0
    8.8913   -2.5222    0.0000 H   0  0  0  0  0  0  0  0  0  0  0  0
    9.7382   -2.7492    0.0000 H   0  0  0  0  0  0  0  0  0  0  0  0
   11.6972   -1.9022    0.0000 H   0  0  0  0  0  0  0  0  0  0  0  0
   11.6701   -5.1216    0.0000 H   0  0  0  0  0  0  0  0  0  0  0  0
   12.9493   -6.0804    0.0000 H   0  0  0  0  0  0  0  0  0  0  0  0
   13.7679   -6.3946    0.0000 H   0  0  0  0  0  0  0  0  0  0  0  0
   14.0821   -5.5760    0.0000 H   0  0  0  0  0  0  0  0  0  0  0  0
  1 16  1  0  0  0  0
  1 17  1  0  0  0  0
  1 54  1  0  0  0  0
  2 21  1  0  0  0  0
  2 28  1  0  0  0  0
  3 21  2  0  0  0  0
  4 23  2  0  0  0  0
  5 25  2  0  0  0  0
  6 30  2  0  0  0  0
  7 40  2  0  0  0  0
  8 46  2  0  0  0  0
  9 15  1  0  0  0  0
  9 49  1  0  0  0  0
 18 10  1  6  0  0  0
 10 25  1  0  0  0  0
 10 58  1  0  0  0  0
 11 23  1  0  0  0  0
 11 24  1  0  0  0  0
 11 63  1  0  0  0  0
 26 12  1  6  0  0  0
 12 30  1  0  0  0  0
 12 70  1  0  0  0  0
 34 13  1  6  0  0  0
 13 40  1  0  0  0  0
 13 79  1  0  0  0  0
 44 14  1  1  0  0  0
 14 46  1  0  0  0  0
 14 95  1  0  0  0  0
 15 47  2  0  0  0  0
 16 17  1  0  0  0  0
 16 18  1  0  0  0  0
 16 51  1  6  0  0  0
 17 21  1  1  0  0  0
 17 52  1  0  0  0  0
 18 19  1  0  0  0  0
 18 53  1  0  0  0  0
 20 19  1  6  0  0  0
 19 55  1  0  0  0  0
 19 56  1  0  0  0  0
 20 22  1  0  0  0  0
 20 23  1  0  0  0  0
 20 57  1  0  0  0  0
 22 24  1  0  0  0  0
 22 59  1  0  0  0  0
 22 60  1  0  0  0  0
 24 61  1  0  0  0  0
 24 62  1  0  0  0  0
 25 26  1  0  0  0  0
 26 27  1  0  0  0  0
 26 64  1  0  0  0  0
 27 29  1  0  0  0  0
 27 65  1  0  0  0  0
 27 66  1  0  0  0  0
 28 31  1  0  0  0  0
 28 67  1  0  0  0  0
 28 68  1  0  0  0  0
 29 32  1  0  0  0  0
 29 33  1  0  0  0  0
 29 69  1  0  0  0  0
 30 34  1  0  0  0  0
 31 36  2  0  0  0  0
 31 37  1  0  0  0  0
 32 71  1  0  0  0  0
 32 72  1  0  0  0  0
 32 73  1  0  0  0  0
 33 74  1  0  0  0  0
 33 75  1  0  0  0  0
 33 76  1  0  0  0  0
 34 35  1  0  0  0  0
 34 77  1  0  0  0  0
 35 38  1  0  0  0  0
 35 39  1  0  0  0  0
 35 78  1  0  0  0  0
 36 41  1  0  0  0  0
 36 80  1  0  0  0  0
 37 42  2  0  0  0  0
 37 81  1  0  0  0  0
 38 82  1  0  0  0  0
 38 83  1  0  0  0  0
 38 84  1  0  0  0  0
 39 85  1  0  0  0  0
 39 86  1  0  0  0  0
 39 87  1  0  0  0  0
 40 44  1  0  0  0  0
 41 43  2  0  0  0  0
 41 88  1  0  0  0  0
 42 43  1  0  0  0  0
 42 89  1  0  0  0  0
 43 90  1  0  0  0  0
 44 45  1  0  0  0  0
 44 91  1  0  0  0  0
 45 92  1  0  0  0  0
 45 93  1  0  0  0  0
 45 94  1  0  0  0  0
 46 47  1  0  0  0  0
 47 48  1  0  0  0  0
 48 49  2  0  0  0  0
 48 96  1  0  0  0  0
 49 50  1  0  0  0  0
 50 97  1  0  0  0  0
 50 98  1  0  0  0  0
 50 99  1  0  0  0  0
M  CHG  1   1   1
M  END
> <PUBCHEM_COMPOUND_CID>
129900301

> <PUBCHEM_COMPOUND_CANONICALIZED>
1

> <PUBCHEM_CACTVS_COMPLEXITY>
1230

> <PUBCHEM_CACTVS_HBOND_ACCEPTOR>
9

> <PUBCHEM_CACTVS_HBOND_DONOR>
6

> <PUBCHEM_CACTVS_ROTATABLE_BOND>
18

> <PUBCHEM_CACTVS_SUBSKEYS>
AAADcfB/vABAAAAAAAAAAAAAEgAAAWLAAAAwAAAAAAAAAAABwAAAHgQUAAAADSzl3gayjJLQBAypA6XyWgCCAAAmIhAomKG+bNoIZjqgtbuWMYhm1hmo6ce/yOCOAAAAAAAAAAAAAAAAAAAAAAAAAAAAAA==

> <PUBCHEM_IUPAC_OPENEYE_NAME>
benzyl (2S,3R)-3-[(1S)-1-[[(2S)-4-methyl-2-[[(2S)-3-methyl-2-[[(2S)-2-[(5-methylisoxazole-3-carbonyl)amino]propanoyl]amino]butanoyl]amino]pentanoyl]amino]-2-[(3S)-2-oxopyrrolidin-3-yl]ethyl]thiiran-1-ium-2-carboxylate

> <PUBCHEM_IUPAC_CAS_NAME>
(2S,3R)-3-[(1S)-1-[[(2S)-4-methyl-2-[[(2S)-3-methyl-2-[[(2S)-2-[[(5-methyl-3-isoxazolyl)-oxomethyl]amino]-1-oxopropyl]amino]-1-oxobutyl]amino]-1-oxopentyl]amino]-2-[(3S)-2-oxo-3-pyrrolidinyl]ethyl]-2-thiiran-1-iumcarboxylic acid (phenylmethyl) ester

> <PUBCHEM_IUPAC_NAME_MARKUP>
benzyl (2<I>S</I>,3<I>R</I>)-3-[(1<I>S</I>)-1-[[(2<I>S</I>)-4-methyl-2-[[(2<I>S</I>)-3-methyl-2-[[(2<I>S</I>)-2-[(5-methyl-1,2-oxazole-3-carbonyl)amino]propanoyl]amino]butanoyl]amino]pentanoyl]amino]-2-[(3<I>S</I>)-2-oxopyrrolidin-3-yl]ethyl]thiiran-1-ium-2-carboxylate

> <PUBCHEM_IUPAC_NAME>
benzyl (2S,3R)-3-[(1S)-1-[[(2S)-4-methyl-2-[[(2S)-3-methyl-2-[[(2S)-2-[(5-methyl-1,2-oxazole-3-carbonyl)amino]propanoyl]amino]butanoyl]amino]pentanoyl]amino]-2-[(3S)-2-oxopyrrolidin-3-yl]ethyl]thiiran-1-ium-2-carboxylate

> <PUBCHEM_IUPAC_SYSTEMATIC_NAME>
(phenylmethyl) (2S,3R)-3-[(1S)-1-[[(2S)-4-methyl-2-[[(2S)-3-methyl-2-[[(2S)-2-[(5-methyl-1,2-oxazol-3-yl)carbonylamino]propanoyl]amino]butanoyl]amino]pentanoyl]amino]-2-[(3S)-2-oxidanylidenepyrrolidin-3-yl]ethyl]thiiran-1-ium-2-carboxylate

> <PUBCHEM_IUPAC_TRADITIONAL_NAME>
(2S,3R)-3-[(1S)-2-[(3S)-2-ketopyrrolidin-3-yl]-1-[[(2S)-4-methyl-2-[[(2S)-3-methyl-2-[[(2S)-2-[(5-methylisoxazole-3-carbonyl)amino]propanoyl]amino]butanoyl]amino]pentanoyl]amino]ethyl]thiiran-1-ium-2-carboxylic acid benzyl ester

> <PUBCHEM_IUPAC_INCHI>
InChI=1S/C35H48N6O8S/c1-18(2)14-25(39-34(46)27(19(3)4)40-30(42)21(6)37-33(45)26-15-20(5)49-41-26)32(44)38-24(16-23-12-13-36-31(23)43)28-29(50-28)35(47)48-17-22-10-8-7-9-11-22/h7-11,15,18-19,21,23-25,27-29H,12-14,16-17H2,1-6H3,(H,36,43)(H,37,45)(H,38,44)(H,39,46)(H,40,42)/p+1/t21-,23-,24-,25-,27-,28+,29+/m0/s1

> <PUBCHEM_IUPAC_INCHIKEY>
RMNWRJVKNDJKNV-YEWJDDQFSA-O

> <PUBCHEM_XLOGP3_AA>
3.7

> <PUBCHEM_EXACT_MASS>
713.333259

> <PUBCHEM_MOLECULAR_FORMULA>
C35H49N6O8S+

> <PUBCHEM_MOLECULAR_WEIGHT>
713.9

> <PUBCHEM_OPENEYE_CAN_SMILES>
CC1=CC(=NO1)C(=O)NC(C)C(=O)NC(C(C)C)C(=O)NC(CC(C)C)C(=O)NC(CC2CCNC2=O)C3C([SH+]3)C(=O)OCC4=CC=CC=C4

> <PUBCHEM_OPENEYE_ISO_SMILES>
CC1=CC(=NO1)C(=O)N[C@@H](C)C(=O)N[C@@H](C(C)C)C(=O)N[C@@H](CC(C)C)C(=O)N[C@@H](C[C@@H]2CCNC2=O)[C@@H]3[C@@H]([SH+]3)C(=O)OCC4=CC=CC=C4

> <PUBCHEM_CACTVS_TPSA>
237

> <PUBCHEM_MONOISOTOPIC_WEIGHT>
713.333259

> <PUBCHEM_TOTAL_CHARGE>
1

> <PUBCHEM_HEAVY_ATOM_COUNT>
50

> <PUBCHEM_ATOM_DEF_STEREO_COUNT>
7

> <PUBCHEM_ATOM_UDEF_STEREO_COUNT>
0

> <PUBCHEM_BOND_DEF_STEREO_COUNT>
0

> <PUBCHEM_BOND_UDEF_STEREO_COUNT>
0

> <PUBCHEM_ISOTOPIC_ATOM_COUNT>
0

> <PUBCHEM_COMPONENT_COUNT>
1

> <PUBCHEM_CACTVS_TAUTO_COUNT>
-1

> <PUBCHEM_COORDINATE_TYPE>
1
5
255

> <PUBCHEM_BONDANNOTATIONS>
18  10  6
26  12  6
34  13  6
44  14  5
15  47  8
16  51  6
17  21  5
20  19  6
31  36  8
31  37  8
36  41  8
37  42  8
41  43  8
42  43  8
47  48  8
48  49  8
9  15  8
9  49  8

$$$$
129900302
  -OEChem-02212016592D

 98101  0     1  0  0  0  0  0999 V2000
    5.5981    0.4217    0.0000 S   0  0  0  0  0  0  0  0  0  0  0  0
    3.7320   -1.0782    0.0000 O   0  0  0  0  0  0  0  0  0  0  0  0
    5.9921    4.0665    0.0000 O   0  0  0  0  0  0  0  0  0  0  0  0
    2.8660    0.4217    0.0000 O   0  0  0  0  0  0  0  0  0  0  0  0
    6.8301    1.2878    0.0000 O   0  0  0  0  0  0  0  0  0  0  0  0
    7.6962    0.7878    0.0000 O   0  0  0  0  0  0  0  0  0  0  0  0
   11.1603   -0.2122    0.0000 O   0  0  0  0  0  0  0  0  0  0  0  0
   10.2942   -3.7122    0.0000 O   0  0  0  0  0  0  0  0  0  0  0  0
   13.6090   -4.0486    0.0000 O   0  0  0  0  0  0  0  0  0  0  0  0
    5.9641    2.7878    0.0000 N   0  0  0  0  0  0  0  0  0  0  0  0
    4.7320    5.3266    0.0000 N   0  0  0  0  0  0  0  0  0  0  0  0
    8.5622    2.2878    0.0000 N   0  0  0  0  0  0  0  0  0  0  0  0
    9.4282   -0.2122    0.0000 N   0  0  0  0  0  0  0  0  0  0  0  0
   11.1603   -2.2122    0.0000 N   0  0  0  0  0  0  0  0  0  0  0  0
   12.9398   -3.3055    0.0000 N   0  0  0  0  0  0  0  0  0  0  0  0
    5.0981    1.2878    0.0000 C   0  0  2  0  0  0  0  0  0  0  0  0
    5.0981    2.2878    0.0000 C   0  0  2  0  0  0  0  0  0  0  0  0
    4.5981    0.4217    0.0000 C   0  0  2  0  0  0  0  0  0  0  0  0
    4.2320    2.7878    0.0000 C   0  0  0  0  0  0  0  0  0  0  0  0
    4.2320    3.7878    0.0000 C   0  0  2  0  0  0  0  0  0  0  0  0
    3.4230    4.3756    0.0000 C   0  0  0  0  0  0  0  0  0  0  0  0
    5.0411    4.3756    0.0000 C   0  0  0  0  0  0  0  0  0  0  0  0
    3.7320    5.3266    0.0000 C   0  0  0  0  0  0  0  0  0  0  0  0
    3.7320   -0.0783    0.0000 C   0  0  0  0  0  0  0  0  0  0  0  0
    6.8301    2.2878    0.0000 C   0  0  0  0  0  0  0  0  0  0  0  0
    7.6962    2.7878    0.0000 C   0  0  2  0  0  0  0  0  0  0  0  0
    7.6962    3.7878    0.0000 C   0  0  0  0  0  0  0  0  0  0  0  0
    8.5622    4.2878    0.0000 C   0  0  0  0  0  0  0  0  0  0  0  0
    2.8660   -1.5782    0.0000 C   0  0  0  0  0  0  0  0  0  0  0  0
    8.5622    1.2878    0.0000 C   0  0  0  0  0  0  0  0  0  0  0  0
    9.4282    0.7878    0.0000 C   0  0  2  0  0  0  0  0  0  0  0  0
    8.5622    5.2878    0.0000 C   0  0  0  0  0  0  0  0  0  0  0  0
    9.4282    3.7878    0.0000 C   0  0  0  0  0  0  0  0  0  0  0  0
   10.2942    1.2878    0.0000 C   0  0  0  0  0  0  0  0  0  0  0  0
    2.8660   -2.5782    0.0000 C   0  0  0  0  0  0  0  0  0  0  0  0
   11.1603    0.7878    0.0000 C   0  0  0  0  0  0  0  0  0  0  0  0
   10.2942    2.2878    0.0000 C   0  0  0  0  0  0  0  0  0  0  0  0
    2.0000   -3.0782    0.0000 C   0  0  0  0  0  0  0  0  0  0  0  0
    3.7320   -3.0782    0.0000 C   0  0  0  0  0  0  0  0  0  0  0  0
   10.2942   -0.7122    0.0000 C   0  0  0  0  0  0  0  0  0  0  0  0
   10.2942   -1.7122    0.0000 C   0  0  2  0  0  0  0  0  0  0  0  0
    2.0000   -4.0782    0.0000 C   0  0  0  0  0  0  0  0  0  0  0  0
    3.7320   -4.0782    0.0000 C   0  0  0  0  0  0  0  0  0  0  0  0
    2.8660   -4.5782    0.0000 C   0  0  0  0  0  0  0  0  0  0  0  0
    9.4282   -2.2122    0.0000 C   0  0  0  0  0  0  0  0  0  0  0  0
   11.1603   -3.2122    0.0000 C   0  0  0  0  0  0  0  0  0  0  0  0
   12.0263   -3.7122    0.0000 C   0  0  0  0  0  0  0  0  0  0  0  0
   12.1308   -4.7068    0.0000 C   0  0  0  0  0  0  0  0  0  0  0  0
   13.1090   -4.9147    0.0000 C   0  0  0  0  0  0  0  0  0  0  0  0
   13.5157   -5.8282    0.0000 C   0  0  0  0  0  0  0  0  0  0  0  0
    5.9191    1.5078    0.0000 H   0  0  0  0  0  0  0  0  0  0  0  0
    5.0981    2.9078    0.0000 H   0  0  0  0  0  0  0  0  0  0  0  0
    4.7585   -0.1771    0.0000 H   0  0  0  0  0  0  0  0  0  0  0  0
    3.6215    2.8954    0.0000 H   0  0  0  0  0  0  0  0  0  0  0  0
    4.0200    2.2052    0.0000 H   0  0  0  0  0  0  0  0  0  0  0  0
    4.7845    3.5063    0.0000 H   0  0  0  0  0  0  0  0  0  0  0  0
    2.8566    4.6277    0.0000 H   0  0  0  0  0  0  0  0  0  0  0  0
    3.1130    3.8386    0.0000 H   0  0  0  0  0  0  0  0  0  0  0  0
    5.9641    3.4078    0.0000 H   0  0  0  0  0  0  0  0  0  0  0  0
    3.7969    5.9432    0.0000 H   0  0  0  0  0  0  0  0  0  0  0  0
    3.1256    5.4555    0.0000 H   0  0  0  0  0  0  0  0  0  0  0  0
    5.0965    5.8282    0.0000 H   0  0  0  0  0  0  0  0  0  0  0  0
    8.2331    3.0978    0.0000 H   0  0  0  0  0  0  0  0  0  0  0  0
    7.4841    4.3704    0.0000 H   0  0  0  0  0  0  0  0  0  0  0  0
    7.0856    3.6801    0.0000 H   0  0  0  0  0  0  0  0  0  0  0  0
    8.5622    3.6678    0.0000 H   0  0  0  0  0  0  0  0  0  0  0  0
    9.0991    2.5978    0.0000 H   0  0  0  0  0  0  0  0  0  0  0  0
    2.6540   -0.9956    0.0000 H   0  0  0  0  0  0  0  0  0  0  0  0
    2.2554   -1.6859    0.0000 H   0  0  0  0  0  0  0  0  0  0  0  0
    9.9651    0.4778    0.0000 H   0  0  0  0  0  0  0  0  0  0  0  0
    9.1822    5.2878    0.0000 H   0  0  0  0  0  0  0  0  0  0  0  0
    8.5622    5.9078    0.0000 H   0  0  0  0  0  0  0  0  0  0  0  0
    7.9422    5.2878    0.0000 H   0  0  0  0  0  0  0  0  0  0  0  0
    9.1182    3.2508    0.0000 H   0  0  0  0  0  0  0  0  0  0  0  0
    9.9651    3.4778    0.0000 H   0  0  0  0  0  0  0  0  0  0  0  0
    9.7382    4.3247    0.0000 H   0  0  0  0  0  0  0  0  0  0  0  0
    9.7573    1.5978    0.0000 H   0  0  0  0  0  0  0  0  0  0  0  0
    8.8913   -0.5222    0.0000 H   0  0  0  0  0  0  0  0  0  0  0  0
   10.8503    0.2508    0.0000 H   0  0  0  0  0  0  0  0  0  0  0  0
   11.6972    0.4778    0.0000 H   0  0  0  0  0  0  0  0  0  0  0  0
   11.4703    1.3247    0.0000 H   0  0  0  0  0  0  0  0  0  0  0  0
   10.9142    2.2878    0.0000 H   0  0  0  0  0  0  0  0  0  0  0  0
   10.2942    2.9078    0.0000 H   0  0  0  0  0  0  0  0  0  0  0  0
    9.6742    2.2878    0.0000 H   0  0  0  0  0  0  0  0  0  0  0  0
    1.4631   -2.7682    0.0000 H   0  0  0  0  0  0  0  0  0  0  0  0
    4.2690   -2.7682    0.0000 H   0  0  0  0  0  0  0  0  0  0  0  0
   10.2942   -2.3322    0.0000 H   0  0  0  0  0  0  0  0  0  0  0  0
    1.4631   -4.3882    0.0000 H   0  0  0  0  0  0  0  0  0  0  0  0
    4.2690   -4.3882    0.0000 H   0  0  0  0  0  0  0  0  0  0  0  0
    2.8660   -5.1982    0.0000 H   0  0  0  0  0  0  0  0  0  0  0  0
    9.1182   -1.6753    0.0000 H   0  0  0  0  0  0  0  0  0  0  0  0
    8.8913   -2.5222    0.0000 H   0  0  0  0  0  0  0  0  0  0  0  0
    9.7382   -2.7492    0.0000 H   0  0  0  0  0  0  0  0  0  0  0  0
   11.6972   -1.9022    0.0000 H   0  0  0  0  0  0  0  0  0  0  0  0
   11.6701   -5.1216    0.0000 H   0  0  0  0  0  0  0  0  0  0  0  0
   12.9493   -6.0804    0.0000 H   0  0  0  0  0  0  0  0  0  0  0  0
   13.7679   -6.3946    0.0000 H   0  0  0  0  0  0  0  0  0  0  0  0
   14.0821   -5.5760    0.0000 H   0  0  0  0  0  0  0  0  0  0  0  0
  1 16  1  0  0  0  0
  1 18  1  0  0  0  0
  2 24  1  0  0  0  0
  2 29  1  0  0  0  0
  3 22  2  0  0  0  0
  4 24  2  0  0  0  0
  5 25  2  0  0  0  0
  6 30  2  0  0  0  0
  7 40  2  0  0  0  0
  8 46  2  0  0  0  0
  9 15  1  0  0  0  0
  9 49  1  0  0  0  0
 17 10  1  6  0  0  0
 10 25  1  0  0  0  0
 10 59  1  0  0  0  0
 11 22  1  0  0  0  0
 11 23  1  0  0  0  0
 11 62  1  0  0  0  0
 26 12  1  6  0  0  0
 12 30  1  0  0  0  0
 12 67  1  0  0  0  0
 31 13  1  6  0  0  0
 13 40  1  0  0  0  0
 13 78  1  0  0  0  0
 41 14  1  1  0  0  0
 14 46  1  0  0  0  0
 14 94  1  0  0  0  0
 15 47  2  0  0  0  0
 16 17  1  0  0  0  0
 16 18  1  0  0  0  0
 16 51  1  6  0  0  0
 17 19  1  0  0  0  0
 17 52  1  0  0  0  0
 18 24  1  1  0  0  0
 18 53  1  0  0  0  0
 20 19  1  6  0  0  0
 19 54  1  0  0  0  0
 19 55  1  0  0  0  0
 20 21  1  0  0  0  0
 20 22  1  0  0  0  0
 20 56  1  0  0  0  0
 21 23  1  0  0  0  0
 21 57  1  0  0  0  0
 21 58  1  0  0  0  0
 23 60  1  0  0  0  0
 23 61  1  0  0  0  0
 25 26  1  0  0  0  0
 26 27  1  0  0  0  0
 26 63  1  0  0  0  0
 27 28  1  0  0  0  0
 27 64  1  0  0  0  0
 27 65  1  0  0  0  0
 28 32  1  0  0  0  0
 28 33  1  0  0  0  0
 28 66  1  0  0  0  0
 29 35  1  0  0  0  0
 29 68  1  0  0  0  0
 29 69  1  0  0  0  0
 30 31  1  0  0  0  0
 31 34  1  0  0  0  0
 31 70  1  0  0  0  0
 32 71  1  0  0  0  0
 32 72  1  0  0  0  0
 32 73  1  0  0  0  0
 33 74  1  0  0  0  0
 33 75  1  0  0  0  0
 33 76  1  0  0  0  0
 34 36  1  0  0  0  0
 34 37  1  0  0  0  0
 34 77  1  0  0  0  0
 35 38  2  0  0  0  0
 35 39  1  0  0  0  0
 36 79  1  0  0  0  0
 36 80  1  0  0  0  0
 36 81  1  0  0  0  0
 37 82  1  0  0  0  0
 37 83  1  0  0  0  0
 37 84  1  0  0  0  0
 38 42  1  0  0  0  0
 38 85  1  0  0  0  0
 39 43  2  0  0  0  0
 39 86  1  0  0  0  0
 40 41  1  0  0  0  0
 41 45  1  0  0  0  0
 41 87  1  0  0  0  0
 42 44  2  0  0  0  0
 42 88  1  0  0  0  0
 43 44  1  0  0  0  0
 43 89  1  0  0  0  0
 44 90  1  0  0  0  0
 45 91  1  0  0  0  0
 45 92  1  0  0  0  0
 45 93  1  0  0  0  0
 46 47  1  0  0  0  0
 47 48  1  0  0  0  0
 48 49  2  0  0  0  0
 48 95  1  0  0  0  0
 49 50  1  0  0  0  0
 50 96  1  0  0  0  0
 50 97  1  0  0  0  0
 50 98  1  0  0  0  0
M  END
> <PUBCHEM_COMPOUND_CID>
129900302

> <PUBCHEM_COMPOUND_CANONICALIZED>
1

> <PUBCHEM_CACTVS_COMPLEXITY>
1230

> <PUBCHEM_CACTVS_HBOND_ACCEPTOR>
10

> <PUBCHEM_CACTVS_HBOND_DONOR>
5

> <PUBCHEM_CACTVS_ROTATABLE_BOND>
18

> <PUBCHEM_CACTVS_SUBSKEYS>
AAADcfB/vABAAAAAAAAAAAAAEgAAAWLAAAAwAAAAAAAAAAABwAAAHgQUAAAADSzl3gayjJLQBAipA6XyWgCCAAAmIhAomKG+bNoIZjqgtbuWMYhm1hmo6ce/yOCOAAAAAAAAAAAAAAAAAAAAAAAAAAAAAA==

> <PUBCHEM_IUPAC_OPENEYE_NAME>
benzyl (2S,3R)-3-[(1S)-1-[[(2S)-4-methyl-2-[[(2S)-3-methyl-2-[[(2S)-2-[(5-methylisoxazole-3-carbonyl)amino]propanoyl]amino]butanoyl]amino]pentanoyl]amino]-2-[(3S)-2-oxopyrrolidin-3-yl]ethyl]thiirane-2-carboxylate

> <PUBCHEM_IUPAC_CAS_NAME>
(2S,3R)-3-[(1S)-1-[[(2S)-4-methyl-2-[[(2S)-3-methyl-2-[[(2S)-2-[[(5-methyl-3-isoxazolyl)-oxomethyl]amino]-1-oxopropyl]amino]-1-oxobutyl]amino]-1-oxopentyl]amino]-2-[(3S)-2-oxo-3-pyrrolidinyl]ethyl]-2-thiiranecarboxylic acid (phenylmethyl) ester

> <PUBCHEM_IUPAC_NAME_MARKUP>
benzyl (2<I>S</I>,3<I>R</I>)-3-[(1<I>S</I>)-1-[[(2<I>S</I>)-4-methyl-2-[[(2<I>S</I>)-3-methyl-2-[[(2<I>S</I>)-2-[(5-methyl-1,2-oxazole-3-carbonyl)amino]propanoyl]amino]butanoyl]amino]pentanoyl]amino]-2-[(3<I>S</I>)-2-oxopyrrolidin-3-yl]ethyl]thiirane-2-carboxylate

> <PUBCHEM_IUPAC_NAME>
benzyl (2S,3R)-3-[(1S)-1-[[(2S)-4-methyl-2-[[(2S)-3-methyl-2-[[(2S)-2-[(5-methyl-1,2-oxazole-3-carbonyl)amino]propanoyl]amino]butanoyl]amino]pentanoyl]amino]-2-[(3S)-2-oxopyrrolidin-3-yl]ethyl]thiirane-2-carboxylate

> <PUBCHEM_IUPAC_SYSTEMATIC_NAME>
(phenylmethyl) (2S,3R)-3-[(1S)-1-[[(2S)-4-methyl-2-[[(2S)-3-methyl-2-[[(2S)-2-[(5-methyl-1,2-oxazol-3-yl)carbonylamino]propanoyl]amino]butanoyl]amino]pentanoyl]amino]-2-[(3S)-2-oxidanylidenepyrrolidin-3-yl]ethyl]thiirane-2-carboxylate

> <PUBCHEM_IUPAC_TRADITIONAL_NAME>
(2S,3R)-3-[(1S)-2-[(3S)-2-ketopyrrolidin-3-yl]-1-[[(2S)-4-methyl-2-[[(2S)-3-methyl-2-[[(2S)-2-[(5-methylisoxazole-3-carbonyl)amino]propanoyl]amino]butanoyl]amino]pentanoyl]amino]ethyl]thiirane-2-carboxylic acid benzyl ester

> <PUBCHEM_IUPAC_INCHI>
InChI=1S/C35H48N6O8S/c1-18(2)14-25(39-34(46)27(19(3)4)40-30(42)21(6)37-33(45)26-15-20(5)49-41-26)32(44)38-24(16-23-12-13-36-31(23)43)28-29(50-28)35(47)48-17-22-10-8-7-9-11-22/h7-11,15,18-19,21,23-25,27-29H,12-14,16-17H2,1-6H3,(H,36,43)(H,37,45)(H,38,44)(H,39,46)(H,40,42)/t21-,23-,24-,25-,27-,28+,29+/m0/s1

> <PUBCHEM_IUPAC_INCHIKEY>
RMNWRJVKNDJKNV-YEWJDDQFSA-N

> <PUBCHEM_XLOGP3_AA>
3.7

> <PUBCHEM_EXACT_MASS>
712.325434

> <PUBCHEM_MOLECULAR_FORMULA>
C35H48N6O8S

> <PUBCHEM_MOLECULAR_WEIGHT>
712.9

> <PUBCHEM_OPENEYE_CAN_SMILES>
CC1=CC(=NO1)C(=O)NC(C)C(=O)NC(C(C)C)C(=O)NC(CC(C)C)C(=O)NC(CC2CCNC2=O)C3C(S3)C(=O)OCC4=CC=CC=C4

> <PUBCHEM_OPENEYE_ISO_SMILES>
CC1=CC(=NO1)C(=O)N[C@@H](C)C(=O)N[C@@H](C(C)C)C(=O)N[C@@H](CC(C)C)C(=O)N[C@@H](C[C@@H]2CCNC2=O)[C@@H]3[C@@H](S3)C(=O)OCC4=CC=CC=C4

> <PUBCHEM_CACTVS_TPSA>
223

> <PUBCHEM_MONOISOTOPIC_WEIGHT>
712.325434

> <PUBCHEM_TOTAL_CHARGE>
0

> <PUBCHEM_HEAVY_ATOM_COUNT>
50

> <PUBCHEM_ATOM_DEF_STEREO_COUNT>
7

> <PUBCHEM_ATOM_UDEF_STEREO_COUNT>
0

> <PUBCHEM_BOND_DEF_STEREO_COUNT>
0

> <PUBCHEM_BOND_UDEF_STEREO_COUNT>
0

> <PUBCHEM_ISOTOPIC_ATOM_COUNT>
0

> <PUBCHEM_COMPONENT_COUNT>
1

> <PUBCHEM_CACTVS_TAUTO_COUNT>
-1

> <PUBCHEM_COORDINATE_TYPE>
1
5
255

> <PUBCHEM_BONDANNOTATIONS>
17  10  6
26  12  6
31  13  6
41  14  5
15  47  8
16  51  6
18  24  5
20  19  6
35  38  8
35  39  8
38  42  8
39  43  8
42  44  8
43  44  8
47  48  8
48  49  8
9  15  8
9  49  8

$$$$
132031336
  -OEChem-02212016592D

 47 48  0     1  0  0  0  0  0999 V2000
    8.8900    4.2238    0.0000 O   0  0  0  0  0  0  0  0  0  0  0  0
    9.0710    2.5013    0.0000 O   0  0  0  0  0  0  0  0  0  0  0  0
    5.5116   -0.3350    0.0000 O   0  0  0  0  0  0  0  0  0  0  0  0
    3.7320   -1.4283    0.0000 O   0  0  0  0  0  0  0  0  0  0  0  0
    5.4997    2.9967    0.0000 O   0  0  0  0  0  0  0  0  0  0  0  0
    7.0820    2.2922    0.0000 N   0  0  0  0  0  0  0  0  0  0  0  0
    6.1808    0.4081    0.0000 N   0  0  0  0  0  0  0  0  0  0  0  0
    6.9010    4.0148    0.0000 C   0  0  0  0  0  0  0  0  0  0  0  0
    7.4888    3.2058    0.0000 C   0  0  3  0  0  0  0  0  0  0  0  0
    7.3077    4.9283    0.0000 C   0  0  0  0  0  0  0  0  0  0  0  0
    5.9064    3.9102    0.0000 C   0  0  0  0  0  0  0  0  0  0  0  0
    8.4833    3.3103    0.0000 C   0  0  0  0  0  0  0  0  0  0  0  0
    6.0875    2.1877    0.0000 C   0  0  0  0  0  0  0  0  0  0  0  0
    5.6808    1.2741    0.0000 C   0  0  0  0  0  0  0  0  0  0  0  0
    4.7026    1.0662    0.0000 C   0  0  0  0  0  0  0  0  0  0  0  0
    4.5981    0.0717    0.0000 C   0  0  0  0  0  0  0  0  0  0  0  0
    3.7320   -0.4283    0.0000 C   0  0  0  0  0  0  0  0  0  0  0  0
    2.8660   -1.9283    0.0000 C   0  0  0  0  0  0  0  0  0  0  0  0
    2.8660   -2.9283    0.0000 C   0  0  0  0  0  0  0  0  0  0  0  0
    9.8845    4.3284    0.0000 C   0  0  0  0  0  0  0  0  0  0  0  0
    2.0000   -3.4283    0.0000 C   0  0  0  0  0  0  0  0  0  0  0  0
    3.7320   -3.4283    0.0000 C   0  0  0  0  0  0  0  0  0  0  0  0
    2.0000   -4.4283    0.0000 C   0  0  0  0  0  0  0  0  0  0  0  0
    3.7320   -4.4283    0.0000 C   0  0  0  0  0  0  0  0  0  0  0  0
    2.8660   -4.9283    0.0000 C   0  0  0  0  0  0  0  0  0  0  0  0
    7.5176    4.0796    0.0000 H   0  0  0  0  0  0  0  0  0  0  0  0
    7.8532    2.7042    0.0000 H   0  0  0  0  0  0  0  0  0  0  0  0
    7.8741    4.6761    0.0000 H   0  0  0  0  0  0  0  0  0  0  0  0
    7.5599    5.4947    0.0000 H   0  0  0  0  0  0  0  0  0  0  0  0
    6.7413    5.1805    0.0000 H   0  0  0  0  0  0  0  0  0  0  0  0
    5.8416    4.5268    0.0000 H   0  0  0  0  0  0  0  0  0  0  0  0
    5.2898    3.8454    0.0000 H   0  0  0  0  0  0  0  0  0  0  0  0
    5.9713    3.2936    0.0000 H   0  0  0  0  0  0  0  0  0  0  0  0
    7.4464    1.7906    0.0000 H   0  0  0  0  0  0  0  0  0  0  0  0
    4.2419    1.4811    0.0000 H   0  0  0  0  0  0  0  0  0  0  0  0
    3.5200    0.1543    0.0000 H   0  0  0  0  0  0  0  0  0  0  0  0
    3.1215   -0.5360    0.0000 H   0  0  0  0  0  0  0  0  0  0  0  0
    2.6540   -1.3457    0.0000 H   0  0  0  0  0  0  0  0  0  0  0  0
    2.2554   -2.0360    0.0000 H   0  0  0  0  0  0  0  0  0  0  0  0
    9.9493    3.7117    0.0000 H   0  0  0  0  0  0  0  0  0  0  0  0
   10.5011    4.3932    0.0000 H   0  0  0  0  0  0  0  0  0  0  0  0
    9.8197    4.9450    0.0000 H   0  0  0  0  0  0  0  0  0  0  0  0
    1.4631   -3.1183    0.0000 H   0  0  0  0  0  0  0  0  0  0  0  0
    4.2690   -3.1183    0.0000 H   0  0  0  0  0  0  0  0  0  0  0  0
    1.4631   -4.7383    0.0000 H   0  0  0  0  0  0  0  0  0  0  0  0
    4.2690   -4.7383    0.0000 H   0  0  0  0  0  0  0  0  0  0  0  0
    2.8660   -5.5483    0.0000 H   0  0  0  0  0  0  0  0  0  0  0  0
  1 12  1  0  0  0  0
  1 20  1  0  0  0  0
  2 12  2  0  0  0  0
  3  7  1  0  0  0  0
  3 16  1  0  0  0  0
  4 17  1  0  0  0  0
  4 18  1  0  0  0  0
  5 13  2  0  0  0  0
  6  9  1  0  0  0  0
  6 13  1  0  0  0  0
  6 34  1  0  0  0  0
  7 14  2  0  0  0  0
  8  9  1  0  0  0  0
  8 10  1  0  0  0  0
  8 11  1  0  0  0  0
  8 26  1  0  0  0  0
  9 12  1  0  0  0  0
  9 27  1  0  0  0  0
 10 28  1  0  0  0  0
 10 29  1  0  0  0  0
 10 30  1  0  0  0  0
 11 31  1  0  0  0  0
 11 32  1  0  0  0  0
 11 33  1  0  0  0  0
 13 14  1  0  0  0  0
 14 15  1  0  0  0  0
 15 16  2  0  0  0  0
 15 35  1  0  0  0  0
 16 17  1  0  0  0  0
 17 36  1  0  0  0  0
 17 37  1  0  0  0  0
 18 19  1  0  0  0  0
 18 38  1  0  0  0  0
 18 39  1  0  0  0  0
 19 21  2  0  0  0  0
 19 22  1  0  0  0  0
 20 40  1  0  0  0  0
 20 41  1  0  0  0  0
 20 42  1  0  0  0  0
 21 23  1  0  0  0  0
 21 43  1  0  0  0  0
 22 24  2  0  0  0  0
 22 44  1  0  0  0  0
 23 25  2  0  0  0  0
 23 45  1  0  0  0  0
 24 25  1  0  0  0  0
 24 46  1  0  0  0  0
 25 47  1  0  0  0  0
M  END
> <PUBCHEM_COMPOUND_CID>
132031336

> <PUBCHEM_COMPOUND_CANONICALIZED>
1

> <PUBCHEM_CACTVS_COMPLEXITY>
437

> <PUBCHEM_CACTVS_HBOND_ACCEPTOR>
6

> <PUBCHEM_CACTVS_HBOND_DONOR>
1

> <PUBCHEM_CACTVS_ROTATABLE_BOND>
9

> <PUBCHEM_CACTVS_SUBSKEYS>
AAADceB7OAAAAAAAAAAAAAAAAAAAAWAAAAAwAAAAAAAAAAABwAAAHgAUAAAADSzhngYyjJLQBACpA6XyWgKCAAAmIgAomKH+bNoLZjqAtb+XMYhm1hma6ce/1CIOAAAAAAAAAAAAAAAAAAAAAAAAAAAAAA==

> <PUBCHEM_IUPAC_OPENEYE_NAME>
methyl 2-[[5-(benzyloxymethyl)isoxazole-3-carbonyl]amino]-3-methyl-butanoate

> <PUBCHEM_IUPAC_CAS_NAME>
3-methyl-2-[[oxo-[5-(phenylmethoxymethyl)-3-isoxazolyl]methyl]amino]butanoic acid methyl ester

> <PUBCHEM_IUPAC_NAME_MARKUP>
methyl 3-methyl-2-[[5-(phenylmethoxymethyl)-1,2-oxazole-3-carbonyl]amino]butanoate

> <PUBCHEM_IUPAC_NAME>
methyl 3-methyl-2-[[5-(phenylmethoxymethyl)-1,2-oxazole-3-carbonyl]amino]butanoate

> <PUBCHEM_IUPAC_SYSTEMATIC_NAME>
methyl 3-methyl-2-[[5-(phenylmethoxymethyl)-1,2-oxazol-3-yl]carbonylamino]butanoate

> <PUBCHEM_IUPAC_TRADITIONAL_NAME>
2-[[5-(benzoxymethyl)isoxazole-3-carbonyl]amino]-3-methyl-butyric acid methyl ester

> <PUBCHEM_IUPAC_INCHI>
InChI=1S/C18H22N2O5/c1-12(2)16(18(22)23-3)19-17(21)15-9-14(25-20-15)11-24-10-13-7-5-4-6-8-13/h4-9,12,16H,10-11H2,1-3H3,(H,19,21)

> <PUBCHEM_IUPAC_INCHIKEY>
TYTHZJRBFQRCAA-UHFFFAOYSA-N

> <PUBCHEM_XLOGP3_AA>
2.4

> <PUBCHEM_EXACT_MASS>
346.152872

> <PUBCHEM_MOLECULAR_FORMULA>
C18H22N2O5

> <PUBCHEM_MOLECULAR_WEIGHT>
346.4

> <PUBCHEM_OPENEYE_CAN_SMILES>
CC(C)C(C(=O)OC)NC(=O)C1=NOC(=C1)COCC2=CC=CC=C2

> <PUBCHEM_OPENEYE_ISO_SMILES>
CC(C)C(C(=O)OC)NC(=O)C1=NOC(=C1)COCC2=CC=CC=C2

> <PUBCHEM_CACTVS_TPSA>
90.7

> <PUBCHEM_MONOISOTOPIC_WEIGHT>
346.152872

> <PUBCHEM_TOTAL_CHARGE>
0

> <PUBCHEM_HEAVY_ATOM_COUNT>
25

> <PUBCHEM_ATOM_DEF_STEREO_COUNT>
0

> <PUBCHEM_ATOM_UDEF_STEREO_COUNT>
1

> <PUBCHEM_BOND_DEF_STEREO_COUNT>
0

> <PUBCHEM_BOND_UDEF_STEREO_COUNT>
0

> <PUBCHEM_ISOTOPIC_ATOM_COUNT>
0

> <PUBCHEM_COMPONENT_COUNT>
1

> <PUBCHEM_CACTVS_TAUTO_COUNT>
-1

> <PUBCHEM_COORDINATE_TYPE>
1
5
255

> <PUBCHEM_BONDANNOTATIONS>
14  15  8
15  16  8
19  21  8
19  22  8
21  23  8
22  24  8
23  25  8
24  25  8
3  16  8
3  7  8
7  14  8
9  8  3

$$$$
133878837
  -OEChem-02212016592D

 43 44  0     0  0  0  0  0  0999 V2000
    4.6780    5.6623    0.0000 O   0  0  0  0  0  0  0  0  0  0  0  0
    2.0570   -2.9880    0.0000 O   0  0  0  0  0  0  0  0  0  0  0  0
    3.0957    4.9578    0.0000 O   0  0  0  0  0  0  0  0  0  0  0  0
    4.9483   -1.3325    0.0000 O   0  0  0  0  0  0  0  0  0  0  0  0
    3.5471   -0.3144    0.0000 N   0  0  0  0  0  0  0  0  0  0  0  0
    2.3660   -2.0370    0.0000 N   0  0  0  0  0  0  0  0  0  0  0  0
    4.3159    2.2172    0.0000 C   0  0  0  0  0  0  0  0  0  0  0  0
    3.7281    1.4081    0.0000 C   0  0  0  0  0  0  0  0  0  0  0  0
    3.9092    3.1307    0.0000 C   0  0  0  0  0  0  0  0  0  0  0  0
    4.1349    0.4946    0.0000 C   0  0  0  0  0  0  0  0  0  0  0  0
    4.4970    3.9397    0.0000 C   0  0  0  0  0  0  0  0  0  0  0  0
    4.0902    4.8533    0.0000 C   0  0  0  0  0  0  0  0  0  0  0  0
    3.9538   -1.2280    0.0000 C   0  0  0  0  0  0  0  0  0  0  0  0
    3.3660   -2.0370    0.0000 C   0  0  0  0  0  0  0  0  0  0  0  0
    2.8660   -3.5758    0.0000 C   0  0  0  0  0  0  0  0  0  0  0  0
    3.6750   -2.9880    0.0000 C   0  0  0  0  0  0  0  0  0  0  0  0
    2.8660   -4.5758    0.0000 C   0  0  0  0  0  0  0  0  0  0  0  0
    2.0000   -5.0758    0.0000 C   0  0  0  0  0  0  0  0  0  0  0  0
    3.7320   -5.0758    0.0000 C   0  0  0  0  0  0  0  0  0  0  0  0
    2.0000   -6.0758    0.0000 C   0  0  0  0  0  0  0  0  0  0  0  0
    3.7320   -6.0758    0.0000 C   0  0  0  0  0  0  0  0  0  0  0  0
    2.8660   -6.5758    0.0000 C   0  0  0  0  0  0  0  0  0  0  0  0
    4.2713    6.5758    0.0000 C   0  0  0  0  0  0  0  0  0  0  0  0
    4.7466    1.7712    0.0000 H   0  0  0  0  0  0  0  0  0  0  0  0
    4.8299    2.5639    0.0000 H   0  0  0  0  0  0  0  0  0  0  0  0
    3.2974    1.8541    0.0000 H   0  0  0  0  0  0  0  0  0  0  0  0
    3.2141    1.0614    0.0000 H   0  0  0  0  0  0  0  0  0  0  0  0
    3.4785    3.5767    0.0000 H   0  0  0  0  0  0  0  0  0  0  0  0
    3.3952    2.7840    0.0000 H   0  0  0  0  0  0  0  0  0  0  0  0
    4.5656    0.0486    0.0000 H   0  0  0  0  0  0  0  0  0  0  0  0
    4.6489    0.8413    0.0000 H   0  0  0  0  0  0  0  0  0  0  0  0
    4.9276    3.4937    0.0000 H   0  0  0  0  0  0  0  0  0  0  0  0
    5.0110    4.2864    0.0000 H   0  0  0  0  0  0  0  0  0  0  0  0
    2.9305   -0.2496    0.0000 H   0  0  0  0  0  0  0  0  0  0  0  0
    4.2647   -3.1796    0.0000 H   0  0  0  0  0  0  0  0  0  0  0  0
    1.4631   -4.7658    0.0000 H   0  0  0  0  0  0  0  0  0  0  0  0
    4.2690   -4.7658    0.0000 H   0  0  0  0  0  0  0  0  0  0  0  0
    1.4631   -6.3858    0.0000 H   0  0  0  0  0  0  0  0  0  0  0  0
    4.2690   -6.3858    0.0000 H   0  0  0  0  0  0  0  0  0  0  0  0
    2.8660   -7.1958    0.0000 H   0  0  0  0  0  0  0  0  0  0  0  0
    4.8377    6.8280    0.0000 H   0  0  0  0  0  0  0  0  0  0  0  0
    4.0191    7.1422    0.0000 H   0  0  0  0  0  0  0  0  0  0  0  0
    3.7049    6.3236    0.0000 H   0  0  0  0  0  0  0  0  0  0  0  0
  1 12  1  0  0  0  0
  1 23  1  0  0  0  0
  2  6  1  0  0  0  0
  2 15  1  0  0  0  0
  3 12  2  0  0  0  0
  4 13  2  0  0  0  0
  5 10  1  0  0  0  0
  5 13  1  0  0  0  0
  5 34  1  0  0  0  0
  6 14  2  0  0  0  0
  7  8  1  0  0  0  0
  7  9  1  0  0  0  0
  7 24  1  0  0  0  0
  7 25  1  0  0  0  0
  8 10  1  0  0  0  0
  8 26  1  0  0  0  0
  8 27  1  0  0  0  0
  9 11  1  0  0  0  0
  9 28  1  0  0  0  0
  9 29  1  0  0  0  0
 10 30  1  0  0  0  0
 10 31  1  0  0  0  0
 11 12  1  0  0  0  0
 11 32  1  0  0  0  0
 11 33  1  0  0  0  0
 13 14  1  0  0  0  0
 14 16  1  0  0  0  0
 15 16  2  0  0  0  0
 15 17  1  0  0  0  0
 16 35  1  0  0  0  0
 17 18  2  0  0  0  0
 17 19  1  0  0  0  0
 18 20  1  0  0  0  0
 18 36  1  0  0  0  0
 19 21  2  0  0  0  0
 19 37  1  0  0  0  0
 20 22  2  0  0  0  0
 20 38  1  0  0  0  0
 21 22  1  0  0  0  0
 21 39  1  0  0  0  0
 22 40  1  0  0  0  0
 23 41  1  0  0  0  0
 23 42  1  0  0  0  0
 23 43  1  0  0  0  0
M  END
> <PUBCHEM_COMPOUND_CID>
133878837

> <PUBCHEM_COMPOUND_CANONICALIZED>
1

> <PUBCHEM_CACTVS_COMPLEXITY>
383

> <PUBCHEM_CACTVS_HBOND_ACCEPTOR>
5

> <PUBCHEM_CACTVS_HBOND_DONOR>
1

> <PUBCHEM_CACTVS_ROTATABLE_BOND>
9

> <PUBCHEM_CACTVS_SUBSKEYS>
AAADceB7OAAAAAAAAAAAAAAAAAAAAWAAAAAwAAAAAAAAAAABwAAAHgAUAAAADAzBngYyjJLQBACpA6XyWgCCAAAmIgAomKG+bNoIZjqAlZOUMYhm1hmIyce/yKCOAAAAAAAAAAAAAAAAAAAAAAAAAAAAAA==

> <PUBCHEM_IUPAC_OPENEYE_NAME>
methyl 6-[(5-phenylisoxazole-3-carbonyl)amino]hexanoate

> <PUBCHEM_IUPAC_CAS_NAME>
6-[[oxo-(5-phenyl-3-isoxazolyl)methyl]amino]hexanoic acid methyl ester

> <PUBCHEM_IUPAC_NAME_MARKUP>
methyl 6-[(5-phenyl-1,2-oxazole-3-carbonyl)amino]hexanoate

> <PUBCHEM_IUPAC_NAME>
methyl 6-[(5-phenyl-1,2-oxazole-3-carbonyl)amino]hexanoate

> <PUBCHEM_IUPAC_SYSTEMATIC_NAME>
methyl 6-[(5-phenyl-1,2-oxazol-3-yl)carbonylamino]hexanoate

> <PUBCHEM_IUPAC_TRADITIONAL_NAME>
6-[(5-phenylisoxazole-3-carbonyl)amino]hexanoic acid methyl ester

> <PUBCHEM_IUPAC_INCHI>
InChI=1S/C17H20N2O4/c1-22-16(20)10-6-3-7-11-18-17(21)14-12-15(23-19-14)13-8-4-2-5-9-13/h2,4-5,8-9,12H,3,6-7,10-11H2,1H3,(H,18,21)

> <PUBCHEM_IUPAC_INCHIKEY>
LKWZGEDGYJZGSD-UHFFFAOYSA-N

> <PUBCHEM_XLOGP3_AA>
2.5

> <PUBCHEM_EXACT_MASS>
316.142307

> <PUBCHEM_MOLECULAR_FORMULA>
C17H20N2O4

> <PUBCHEM_MOLECULAR_WEIGHT>
316.35

> <PUBCHEM_OPENEYE_CAN_SMILES>
COC(=O)CCCCCNC(=O)C1=NOC(=C1)C2=CC=CC=C2

> <PUBCHEM_OPENEYE_ISO_SMILES>
COC(=O)CCCCCNC(=O)C1=NOC(=C1)C2=CC=CC=C2

> <PUBCHEM_CACTVS_TPSA>
81.4

> <PUBCHEM_MONOISOTOPIC_WEIGHT>
316.142307

> <PUBCHEM_TOTAL_CHARGE>
0

> <PUBCHEM_HEAVY_ATOM_COUNT>
23

> <PUBCHEM_ATOM_DEF_STEREO_COUNT>
0

> <PUBCHEM_ATOM_UDEF_STEREO_COUNT>
0

> <PUBCHEM_BOND_DEF_STEREO_COUNT>
0

> <PUBCHEM_BOND_UDEF_STEREO_COUNT>
0

> <PUBCHEM_ISOTOPIC_ATOM_COUNT>
0

> <PUBCHEM_COMPONENT_COUNT>
1

> <PUBCHEM_CACTVS_TAUTO_COUNT>
-1

> <PUBCHEM_COORDINATE_TYPE>
1
5
255

> <PUBCHEM_BONDANNOTATIONS>
14  16  8
15  16  8
17  18  8
17  19  8
18  20  8
19  21  8
2  15  8
2  6  8
20  22  8
21  22  8
6  14  8

$$$$
134041500
  -OEChem-02212016592D

 37 38  0     1  0  0  0  0  0999 V2000
    2.0570   -1.6700    0.0000 O   0  0  0  0  0  0  0  0  0  0  0  0
    3.9092    4.4488    0.0000 O   0  0  0  0  0  0  0  0  0  0  0  0
    4.9483   -0.0144    0.0000 O   0  0  0  0  0  0  0  0  0  0  0  0
    5.3104    3.4307    0.0000 O   0  0  0  0  0  0  0  0  0  0  0  0
    3.5471    1.0036    0.0000 N   0  0  0  0  0  0  0  0  0  0  0  0
    2.3660   -0.7189    0.0000 N   0  0  0  0  0  0  0  0  0  0  0  0
    4.1349    1.8126    0.0000 C   0  0  3  0  0  0  0  0  0  0  0  0
    3.7281    2.7262    0.0000 C   0  0  0  0  0  0  0  0  0  0  0  0
    5.1294    1.7081    0.0000 C   0  0  0  0  0  0  0  0  0  0  0  0
    3.9538    0.0901    0.0000 C   0  0  0  0  0  0  0  0  0  0  0  0
    3.3660   -0.7189    0.0000 C   0  0  0  0  0  0  0  0  0  0  0  0
    4.3159    3.5352    0.0000 C   0  0  0  0  0  0  0  0  0  0  0  0
    2.8660   -2.2578    0.0000 C   0  0  0  0  0  0  0  0  0  0  0  0
    3.6750   -1.6700    0.0000 C   0  0  0  0  0  0  0  0  0  0  0  0
    2.8660   -3.2578    0.0000 C   0  0  0  0  0  0  0  0  0  0  0  0
    2.0000   -3.7578    0.0000 C   0  0  0  0  0  0  0  0  0  0  0  0
    3.7320   -3.7578    0.0000 C   0  0  0  0  0  0  0  0  0  0  0  0
    2.0000   -4.7578    0.0000 C   0  0  0  0  0  0  0  0  0  0  0  0
    3.7320   -4.7578    0.0000 C   0  0  0  0  0  0  0  0  0  0  0  0
    2.8660   -5.2578    0.0000 C   0  0  0  0  0  0  0  0  0  0  0  0
    4.4970    5.2578    0.0000 C   0  0  0  0  0  0  0  0  0  0  0  0
    3.5183    1.8775    0.0000 H   0  0  0  0  0  0  0  0  0  0  0  0
    3.2974    3.1722    0.0000 H   0  0  0  0  0  0  0  0  0  0  0  0
    3.2141    2.3795    0.0000 H   0  0  0  0  0  0  0  0  0  0  0  0
    2.9305    1.0684    0.0000 H   0  0  0  0  0  0  0  0  0  0  0  0
    5.0646    1.0915    0.0000 H   0  0  0  0  0  0  0  0  0  0  0  0
    5.7460    1.6433    0.0000 H   0  0  0  0  0  0  0  0  0  0  0  0
    5.1942    2.3247    0.0000 H   0  0  0  0  0  0  0  0  0  0  0  0
    4.2647   -1.8616    0.0000 H   0  0  0  0  0  0  0  0  0  0  0  0
    1.4631   -3.4478    0.0000 H   0  0  0  0  0  0  0  0  0  0  0  0
    4.2690   -3.4478    0.0000 H   0  0  0  0  0  0  0  0  0  0  0  0
    1.4631   -5.0678    0.0000 H   0  0  0  0  0  0  0  0  0  0  0  0
    4.2690   -5.0678    0.0000 H   0  0  0  0  0  0  0  0  0  0  0  0
    2.8660   -5.8778    0.0000 H   0  0  0  0  0  0  0  0  0  0  0  0
    4.9986    4.8934    0.0000 H   0  0  0  0  0  0  0  0  0  0  0  0
    4.8614    5.7594    0.0000 H   0  0  0  0  0  0  0  0  0  0  0  0
    3.9954    5.6222    0.0000 H   0  0  0  0  0  0  0  0  0  0  0  0
  1  6  1  0  0  0  0
  1 13  1  0  0  0  0
  2 12  1  0  0  0  0
  2 21  1  0  0  0  0
  3 10  2  0  0  0  0
  4 12  2  0  0  0  0
  5  7  1  0  0  0  0
  5 10  1  0  0  0  0
  5 25  1  0  0  0  0
  6 11  2  0  0  0  0
  7  8  1  0  0  0  0
  7  9  1  0  0  0  0
  7 22  1  0  0  0  0
  8 12  1  0  0  0  0
  8 23  1  0  0  0  0
  8 24  1  0  0  0  0
  9 26  1  0  0  0  0
  9 27  1  0  0  0  0
  9 28  1  0  0  0  0
 10 11  1  0  0  0  0
 11 14  1  0  0  0  0
 13 14  2  0  0  0  0
 13 15  1  0  0  0  0
 14 29  1  0  0  0  0
 15 16  2  0  0  0  0
 15 17  1  0  0  0  0
 16 18  1  0  0  0  0
 16 30  1  0  0  0  0
 17 19  2  0  0  0  0
 17 31  1  0  0  0  0
 18 20  2  0  0  0  0
 18 32  1  0  0  0  0
 19 20  1  0  0  0  0
 19 33  1  0  0  0  0
 20 34  1  0  0  0  0
 21 35  1  0  0  0  0
 21 36  1  0  0  0  0
 21 37  1  0  0  0  0
M  END
> <PUBCHEM_COMPOUND_CID>
134041500

> <PUBCHEM_COMPOUND_CANONICALIZED>
1

> <PUBCHEM_CACTVS_COMPLEXITY>
369

> <PUBCHEM_CACTVS_HBOND_ACCEPTOR>
5

> <PUBCHEM_CACTVS_HBOND_DONOR>
1

> <PUBCHEM_CACTVS_ROTATABLE_BOND>
6

> <PUBCHEM_CACTVS_SUBSKEYS>
AAADceBzOAAAAAAAAAAAAAAAAAAAAWAAAAAwAAAAAAAAAAABwAAAHgAUAAAADCzBngYyjJLQBACpA6XyWgCCAAAmIgAomKG+bNoIZjqAlZOUMYhm1hmIyce/yKCOAAAAAAAAAAAAAAAAAAAAAAAAAAAAAA==

> <PUBCHEM_IUPAC_OPENEYE_NAME>
methyl 3-[(5-phenylisoxazole-3-carbonyl)amino]butanoate

> <PUBCHEM_IUPAC_CAS_NAME>
3-[[oxo-(5-phenyl-3-isoxazolyl)methyl]amino]butanoic acid methyl ester

> <PUBCHEM_IUPAC_NAME_MARKUP>
methyl 3-[(5-phenyl-1,2-oxazole-3-carbonyl)amino]butanoate

> <PUBCHEM_IUPAC_NAME>
methyl 3-[(5-phenyl-1,2-oxazole-3-carbonyl)amino]butanoate

> <PUBCHEM_IUPAC_SYSTEMATIC_NAME>
methyl 3-[(5-phenyl-1,2-oxazol-3-yl)carbonylamino]butanoate

> <PUBCHEM_IUPAC_TRADITIONAL_NAME>
3-[(5-phenylisoxazole-3-carbonyl)amino]butyric acid methyl ester

> <PUBCHEM_IUPAC_INCHI>
InChI=1S/C15H16N2O4/c1-10(8-14(18)20-2)16-15(19)12-9-13(21-17-12)11-6-4-3-5-7-11/h3-7,9-10H,8H2,1-2H3,(H,16,19)

> <PUBCHEM_IUPAC_INCHIKEY>
YSIWHVUPKWOQMA-UHFFFAOYSA-N

> <PUBCHEM_XLOGP3_AA>
1.9

> <PUBCHEM_EXACT_MASS>
288.111007

> <PUBCHEM_MOLECULAR_FORMULA>
C15H16N2O4

> <PUBCHEM_MOLECULAR_WEIGHT>
288.3

> <PUBCHEM_OPENEYE_CAN_SMILES>
CC(CC(=O)OC)NC(=O)C1=NOC(=C1)C2=CC=CC=C2

> <PUBCHEM_OPENEYE_ISO_SMILES>
CC(CC(=O)OC)NC(=O)C1=NOC(=C1)C2=CC=CC=C2

> <PUBCHEM_CACTVS_TPSA>
81.4

> <PUBCHEM_MONOISOTOPIC_WEIGHT>
288.111007

> <PUBCHEM_TOTAL_CHARGE>
0

> <PUBCHEM_HEAVY_ATOM_COUNT>
21

> <PUBCHEM_ATOM_DEF_STEREO_COUNT>
0

> <PUBCHEM_ATOM_UDEF_STEREO_COUNT>
1

> <PUBCHEM_BOND_DEF_STEREO_COUNT>
0

> <PUBCHEM_BOND_UDEF_STEREO_COUNT>
0

> <PUBCHEM_ISOTOPIC_ATOM_COUNT>
0

> <PUBCHEM_COMPONENT_COUNT>
1

> <PUBCHEM_CACTVS_TAUTO_COUNT>
-1

> <PUBCHEM_COORDINATE_TYPE>
1
5
255

> <PUBCHEM_BONDANNOTATIONS>
1  13  8
1  6  8
11  14  8
13  14  8
15  16  8
15  17  8
16  18  8
17  19  8
18  20  8
19  20  8
6  11  8
7  9  3

$$$$
134693066
  -OEChem-02212016592D

 82 84  0     1  0  0  0  0  0999 V2000
    5.4641   -5.2702    0.0000 F   0  0  0  0  0  0  0  0  0  0  0  0
    8.0902    3.5086    0.0000 O   0  0  0  0  0  0  0  0  0  0  0  0
    7.1962    0.7298    0.0000 O   0  0  0  0  0  0  0  0  0  0  0  0
    8.0622    0.2298    0.0000 O   0  0  0  0  0  0  0  0  0  0  0  0
    2.8660    3.2298    0.0000 O   0  0  0  0  0  0  0  0  0  0  0  0
   10.6603   -2.2702    0.0000 O   0  0  0  0  0  0  0  0  0  0  0  0
    2.0000    1.7298    0.0000 O   0  0  0  0  0  0  0  0  0  0  0  0
   12.6090    0.4322    0.0000 O   0  0  0  0  0  0  0  0  0  0  0  0
    6.8301    4.7686    0.0000 N   0  0  0  0  0  0  0  0  0  0  0  0
    5.4641    0.7298    0.0000 N   0  0  0  0  0  0  0  0  0  0  0  0
    9.7942   -0.7702    0.0000 N   0  0  0  0  0  0  0  0  0  0  0  0
   11.6308    0.2243    0.0000 N   0  0  0  0  0  0  0  0  0  0  0  0
    6.3301    3.2298    0.0000 C   0  0  3  0  0  0  0  0  0  0  0  0
    6.3301    2.2298    0.0000 C   0  0  0  0  0  0  0  0  0  0  0  0
    5.5211    3.8176    0.0000 C   0  0  0  0  0  0  0  0  0  0  0  0
    5.4641    1.7298    0.0000 C   0  0  3  0  0  0  0  0  0  0  0  0
    5.8301    4.7686    0.0000 C   0  0  0  0  0  0  0  0  0  0  0  0
    7.1391    3.8176    0.0000 C   0  0  0  0  0  0  0  0  0  0  0  0
    6.3301   -0.7702    0.0000 C   0  0  2  0  0  0  0  0  0  0  0  0
    7.1962   -1.2702    0.0000 C   0  0  0  0  0  0  0  0  0  0  0  0
    6.3301    0.2298    0.0000 C   0  0  0  0  0  0  0  0  0  0  0  0
    8.9282   -1.2702    0.0000 C   0  0  1  0  0  0  0  0  0  0  0  0
    5.4641   -1.2702    0.0000 C   0  0  0  0  0  0  0  0  0  0  0  0
    8.9282   -2.2702    0.0000 C   0  0  0  0  0  0  0  0  0  0  0  0
    8.0622   -0.7702    0.0000 C   0  0  0  0  0  0  0  0  0  0  0  0
    4.5981    2.2298    0.0000 C   0  0  0  0  0  0  0  0  0  0  0  0
    5.4641   -2.2702    0.0000 C   0  0  0  0  0  0  0  0  0  0  0  0
    9.7942   -2.7702    0.0000 C   0  0  0  0  0  0  0  0  0  0  0  0
    8.0622   -2.7702    0.0000 C   0  0  0  0  0  0  0  0  0  0  0  0
    3.7320    1.7298    0.0000 C   0  0  0  0  0  0  0  0  0  0  0  0
    6.3301   -2.7702    0.0000 C   0  0  0  0  0  0  0  0  0  0  0  0
    4.5981   -2.7702    0.0000 C   0  0  0  0  0  0  0  0  0  0  0  0
   10.6603   -1.2702    0.0000 C   0  0  0  0  0  0  0  0  0  0  0  0
    2.8660    2.2298    0.0000 C   0  0  0  0  0  0  0  0  0  0  0  0
    6.3301   -3.7702    0.0000 C   0  0  0  0  0  0  0  0  0  0  0  0
    4.5981   -3.7702    0.0000 C   0  0  0  0  0  0  0  0  0  0  0  0
   11.5263   -0.7702    0.0000 C   0  0  0  0  0  0  0  0  0  0  0  0
    5.4641   -4.2702    0.0000 C   0  0  0  0  0  0  0  0  0  0  0  0
   12.4398   -1.1770    0.0000 C   0  0  0  0  0  0  0  0  0  0  0  0
   13.1090   -0.4338    0.0000 C   0  0  0  0  0  0  0  0  0  0  0  0
    2.0000    3.7298    0.0000 C   0  0  0  0  0  0  0  0  0  0  0  0
   14.1035   -0.5383    0.0000 C   0  0  0  0  0  0  0  0  0  0  0  0
    2.0000    4.7298    0.0000 C   0  0  0  0  0  0  0  0  0  0  0  0
    6.8826    2.9483    0.0000 H   0  0  0  0  0  0  0  0  0  0  0  0
    6.5422    1.6472    0.0000 H   0  0  0  0  0  0  0  0  0  0  0  0
    6.9407    2.3374    0.0000 H   0  0  0  0  0  0  0  0  0  0  0  0
    4.9547    4.0698    0.0000 H   0  0  0  0  0  0  0  0  0  0  0  0
    5.2111    3.2806    0.0000 H   0  0  0  0  0  0  0  0  0  0  0  0
    6.0010    1.4198    0.0000 H   0  0  0  0  0  0  0  0  0  0  0  0
    5.8949    5.3852    0.0000 H   0  0  0  0  0  0  0  0  0  0  0  0
    5.2237    4.8975    0.0000 H   0  0  0  0  0  0  0  0  0  0  0  0
    6.8671   -0.4602    0.0000 H   0  0  0  0  0  0  0  0  0  0  0  0
    7.1946    5.2702    0.0000 H   0  0  0  0  0  0  0  0  0  0  0  0
    4.9272    0.4198    0.0000 H   0  0  0  0  0  0  0  0  0  0  0  0
    6.7976   -1.7452    0.0000 H   0  0  0  0  0  0  0  0  0  0  0  0
    7.5947   -1.7452    0.0000 H   0  0  0  0  0  0  0  0  0  0  0  0
    8.9282   -0.6502    0.0000 H   0  0  0  0  0  0  0  0  0  0  0  0
    5.2520   -0.6876    0.0000 H   0  0  0  0  0  0  0  0  0  0  0  0
    4.8535   -1.3779    0.0000 H   0  0  0  0  0  0  0  0  0  0  0  0
    9.4651   -1.9602    0.0000 H   0  0  0  0  0  0  0  0  0  0  0  0
    4.5981    2.8498    0.0000 H   0  0  0  0  0  0  0  0  0  0  0  0
    9.7942   -0.1502    0.0000 H   0  0  0  0  0  0  0  0  0  0  0  0
    9.4842   -3.3072    0.0000 H   0  0  0  0  0  0  0  0  0  0  0  0
   10.3312   -3.0802    0.0000 H   0  0  0  0  0  0  0  0  0  0  0  0
   10.1042   -2.2333    0.0000 H   0  0  0  0  0  0  0  0  0  0  0  0
    7.7522   -2.2333    0.0000 H   0  0  0  0  0  0  0  0  0  0  0  0
    7.5252   -3.0802    0.0000 H   0  0  0  0  0  0  0  0  0  0  0  0
    8.3722   -3.3072    0.0000 H   0  0  0  0  0  0  0  0  0  0  0  0
    3.7320    1.1098    0.0000 H   0  0  0  0  0  0  0  0  0  0  0  0
    6.8671   -2.4602    0.0000 H   0  0  0  0  0  0  0  0  0  0  0  0
    4.0611   -2.4602    0.0000 H   0  0  0  0  0  0  0  0  0  0  0  0
    6.8671   -4.0802    0.0000 H   0  0  0  0  0  0  0  0  0  0  0  0
    4.0611   -4.0802    0.0000 H   0  0  0  0  0  0  0  0  0  0  0  0
   12.5687   -1.7834    0.0000 H   0  0  0  0  0  0  0  0  0  0  0  0
    1.3894    3.8374    0.0000 H   0  0  0  0  0  0  0  0  0  0  0  0
    1.7880    3.1472    0.0000 H   0  0  0  0  0  0  0  0  0  0  0  0
   14.0387   -1.1549    0.0000 H   0  0  0  0  0  0  0  0  0  0  0  0
   14.7201   -0.6031    0.0000 H   0  0  0  0  0  0  0  0  0  0  0  0
   14.1683    0.0783    0.0000 H   0  0  0  0  0  0  0  0  0  0  0  0
    2.6200    4.7298    0.0000 H   0  0  0  0  0  0  0  0  0  0  0  0
    2.0000    5.3498    0.0000 H   0  0  0  0  0  0  0  0  0  0  0  0
    1.3800    4.7298    0.0000 H   0  0  0  0  0  0  0  0  0  0  0  0
  1 38  1  0  0  0  0
  2 18  2  0  0  0  0
  3 21  2  0  0  0  0
  4 25  2  0  0  0  0
  5 34  1  0  0  0  0
  5 41  1  0  0  0  0
  6 33  2  0  0  0  0
  7 34  2  0  0  0  0
  8 12  1  0  0  0  0
  8 40  1  0  0  0  0
  9 17  1  0  0  0  0
  9 18  1  0  0  0  0
  9 53  1  0  0  0  0
 10 16  1  0  0  0  0
 10 21  1  0  0  0  0
 10 54  1  0  0  0  0
 22 11  1  1  0  0  0
 11 33  1  0  0  0  0
 11 62  1  0  0  0  0
 12 37  2  0  0  0  0
 13 14  1  0  0  0  0
 13 15  1  0  0  0  0
 13 18  1  0  0  0  0
 13 44  1  0  0  0  0
 14 16  1  0  0  0  0
 14 45  1  0  0  0  0
 14 46  1  0  0  0  0
 15 17  1  0  0  0  0
 15 47  1  0  0  0  0
 15 48  1  0  0  0  0
 16 26  1  0  0  0  0
 16 49  1  0  0  0  0
 17 50  1  0  0  0  0
 17 51  1  0  0  0  0
 19 20  1  1  0  0  0
 19 21  1  0  0  0  0
 19 23  1  0  0  0  0
 19 52  1  0  0  0  0
 20 25  1  0  0  0  0
 20 55  1  0  0  0  0
 20 56  1  0  0  0  0
 22 24  1  0  0  0  0
 22 25  1  0  0  0  0
 22 57  1  0  0  0  0
 23 27  1  0  0  0  0
 23 58  1  0  0  0  0
 23 59  1  0  0  0  0
 24 28  1  0  0  0  0
 24 29  1  0  0  0  0
 24 60  1  0  0  0  0
 26 30  2  0  0  0  0
 26 61  1  0  0  0  0
 27 31  2  0  0  0  0
 27 32  1  0  0  0  0
 28 63  1  0  0  0  0
 28 64  1  0  0  0  0
 28 65  1  0  0  0  0
 29 66  1  0  0  0  0
 29 67  1  0  0  0  0
 29 68  1  0  0  0  0
 30 34  1  0  0  0  0
 30 69  1  0  0  0  0
 31 35  1  0  0  0  0
 31 70  1  0  0  0  0
 32 36  2  0  0  0  0
 32 71  1  0  0  0  0
 33 37  1  0  0  0  0
 35 38  2  0  0  0  0
 35 72  1  0  0  0  0
 36 38  1  0  0  0  0
 36 73  1  0  0  0  0
 37 39  1  0  0  0  0
 39 40  2  0  0  0  0
 39 74  1  0  0  0  0
 40 42  1  0  0  0  0
 41 43  1  0  0  0  0
 41 75  1  0  0  0  0
 41 76  1  0  0  0  0
 42 77  1  0  0  0  0
 42 78  1  0  0  0  0
 42 79  1  0  0  0  0
 43 80  1  0  0  0  0
 43 81  1  0  0  0  0
 43 82  1  0  0  0  0
M  END
> <PUBCHEM_COMPOUND_CID>
134693066

> <PUBCHEM_COMPOUND_CANONICALIZED>
1

> <PUBCHEM_CACTVS_COMPLEXITY>
1010

> <PUBCHEM_CACTVS_HBOND_ACCEPTOR>
9

> <PUBCHEM_CACTVS_HBOND_DONOR>
3

> <PUBCHEM_CACTVS_ROTATABLE_BOND>
16

> <PUBCHEM_CACTVS_SUBSKEYS>
AAADcfB7uQAAAAAAAAAAAAAAAAAAAWLAAAAwAAAAAAAAAAABwAAAHwAUAAAADSzhng4yjJLQBACpA6XyWgCCAAAmIgAomKG+bNoIZjqAtbOWMYhmlhiI6cc/icCeAAAAAAAAAAAAAAAAAAAAAAAAAAAAAA==

> <PUBCHEM_IUPAC_OPENEYE_NAME>
ethyl (E)-4-[[(2R,5S)-2-[(4-fluorophenyl)methyl]-6-methyl-5-[(5-methylisoxazole-3-carbonyl)amino]-4-oxo-heptanoyl]amino]-5-(2-oxopyrrolidin-3-yl)pent-2-enoate

> <PUBCHEM_IUPAC_CAS_NAME>
(E)-4-[[(2R,5S)-2-[(4-fluorophenyl)methyl]-6-methyl-5-[[(5-methyl-3-isoxazolyl)-oxomethyl]amino]-1,4-dioxoheptyl]amino]-5-(2-oxo-3-pyrrolidinyl)-2-pentenoic acid ethyl ester

> <PUBCHEM_IUPAC_NAME_MARKUP>
ethyl (<I>E</I>)-4-[[(2<I>R</I>,5<I>S</I>)-2-[(4-fluorophenyl)methyl]-6-methyl-5-[(5-methyl-1,2-oxazole-3-carbonyl)amino]-4-oxoheptanoyl]amino]-5-(2-oxopyrrolidin-3-yl)pent-2-enoate

> <PUBCHEM_IUPAC_NAME>
ethyl (E)-4-[[(2R,5S)-2-[(4-fluorophenyl)methyl]-6-methyl-5-[(5-methyl-1,2-oxazole-3-carbonyl)amino]-4-oxoheptanoyl]amino]-5-(2-oxopyrrolidin-3-yl)pent-2-enoate

> <PUBCHEM_IUPAC_SYSTEMATIC_NAME>
ethyl (E)-4-[[(2R,5S)-2-[(4-fluorophenyl)methyl]-6-methyl-5-[(5-methyl-1,2-oxazol-3-yl)carbonylamino]-4-oxidanylidene-heptanoyl]amino]-5-(2-oxidanylidenepyrrolidin-3-yl)pent-2-enoate

> <PUBCHEM_IUPAC_TRADITIONAL_NAME>
(E)-4-[[(2R,5S)-2-(4-fluorobenzyl)-4-keto-6-methyl-5-[(5-methylisoxazole-3-carbonyl)amino]heptanoyl]amino]-5-(2-ketopyrrolidin-3-yl)pent-2-enoic acid ethyl ester

> <PUBCHEM_IUPAC_INCHI>
InChI=1S/C31H39FN4O7/c1-5-42-27(38)11-10-24(16-21-12-13-33-29(21)39)34-30(40)22(15-20-6-8-23(32)9-7-20)17-26(37)28(18(2)3)35-31(41)25-14-19(4)43-36-25/h6-11,14,18,21-22,24,28H,5,12-13,15-17H2,1-4H3,(H,33,39)(H,34,40)(H,35,41)/b11-10+/t21?,22-,24?,28+/m1/s1

> <PUBCHEM_IUPAC_INCHIKEY>
CAYJBRBGZBCZKO-HEMPBFCESA-N

> <PUBCHEM_XLOGP3_AA>
3.1

> <PUBCHEM_EXACT_MASS>
598.280278

> <PUBCHEM_MOLECULAR_FORMULA>
C31H39FN4O7

> <PUBCHEM_MOLECULAR_WEIGHT>
598.7

> <PUBCHEM_OPENEYE_CAN_SMILES>
CCOC(=O)C=CC(CC1CCNC1=O)NC(=O)C(CC2=CC=C(C=C2)F)CC(=O)C(C(C)C)NC(=O)C3=NOC(=C3)C

> <PUBCHEM_OPENEYE_ISO_SMILES>
CCOC(=O)/C=C/C(CC1CCNC1=O)NC(=O)[C@H](CC2=CC=C(C=C2)F)CC(=O)[C@H](C(C)C)NC(=O)C3=NOC(=C3)C

> <PUBCHEM_CACTVS_TPSA>
157

> <PUBCHEM_MONOISOTOPIC_WEIGHT>
598.280278

> <PUBCHEM_TOTAL_CHARGE>
0

> <PUBCHEM_HEAVY_ATOM_COUNT>
43

> <PUBCHEM_ATOM_DEF_STEREO_COUNT>
2

> <PUBCHEM_ATOM_UDEF_STEREO_COUNT>
2

> <PUBCHEM_BOND_DEF_STEREO_COUNT>
1

> <PUBCHEM_BOND_UDEF_STEREO_COUNT>
0

> <PUBCHEM_ISOTOPIC_ATOM_COUNT>
0

> <PUBCHEM_COMPONENT_COUNT>
1

> <PUBCHEM_CACTVS_TAUTO_COUNT>
-1

> <PUBCHEM_COORDINATE_TYPE>
1
5
255

> <PUBCHEM_BONDANNOTATIONS>
22  11  5
12  37  8
13  14  3
16  14  3
19  20  5
27  31  8
27  32  8
31  35  8
32  36  8
35  38  8
36  38  8
37  39  8
39  40  8
8  12  8
8  40  8

$$$$
135348871
  -OEChem-02212016592D

 40 41  0     0  0  0  0  0  0999 V2000
    6.3776    1.2240    0.0000 O   0  0  0  0  0  0  0  0  0  0  0  0
    7.9480    3.8512    0.0000 O   0  0  0  0  0  0  0  0  0  0  0  0
    2.0000   -1.3693    0.0000 O   0  0  0  0  0  0  0  0  0  0  0  0
    6.3657    4.5557    0.0000 O   0  0  0  0  0  0  0  0  0  0  0  0
    3.7320   -1.3693    0.0000 N   0  0  0  0  0  0  0  0  0  0  0  0
    7.0468    1.9671    0.0000 N   0  0  0  0  0  0  0  0  0  0  0  0
    4.5981    0.1307    0.0000 C   0  0  0  0  0  0  0  0  0  0  0  0
    4.5981    1.1307    0.0000 C   0  0  0  0  0  0  0  0  0  0  0  0
    3.7320   -0.3693    0.0000 C   0  0  0  0  0  0  0  0  0  0  0  0
    5.4641    1.6307    0.0000 C   0  0  0  0  0  0  0  0  0  0  0  0
    5.5686    2.6252    0.0000 C   0  0  0  0  0  0  0  0  0  0  0  0
    2.8660   -1.8693    0.0000 C   0  0  0  0  0  0  0  0  0  0  0  0
    6.5468    2.8331    0.0000 C   0  0  0  0  0  0  0  0  0  0  0  0
    2.8660   -2.8693    0.0000 C   0  0  0  0  0  0  0  0  0  0  0  0
    6.9535    3.7467    0.0000 C   0  0  0  0  0  0  0  0  0  0  0  0
    2.0000   -3.3693    0.0000 C   0  0  0  0  0  0  0  0  0  0  0  0
    3.7320   -3.3693    0.0000 C   0  0  0  0  0  0  0  0  0  0  0  0
    2.0000   -4.3693    0.0000 C   0  0  0  0  0  0  0  0  0  0  0  0
    3.7320   -4.3693    0.0000 C   0  0  0  0  0  0  0  0  0  0  0  0
    2.8660   -4.8693    0.0000 C   0  0  0  0  0  0  0  0  0  0  0  0
    8.3548    4.7648    0.0000 C   0  0  0  0  0  0  0  0  0  0  0  0
    9.3493    4.8693    0.0000 C   0  0  0  0  0  0  0  0  0  0  0  0
    4.8101   -0.4519    0.0000 H   0  0  0  0  0  0  0  0  0  0  0  0
    5.2087    0.2384    0.0000 H   0  0  0  0  0  0  0  0  0  0  0  0
    4.3860    1.7133    0.0000 H   0  0  0  0  0  0  0  0  0  0  0  0
    3.9875    1.0230    0.0000 H   0  0  0  0  0  0  0  0  0  0  0  0
    3.5200    0.2133    0.0000 H   0  0  0  0  0  0  0  0  0  0  0  0
    3.1215   -0.4770    0.0000 H   0  0  0  0  0  0  0  0  0  0  0  0
    4.2690   -1.6793    0.0000 H   0  0  0  0  0  0  0  0  0  0  0  0
    5.1079    3.0401    0.0000 H   0  0  0  0  0  0  0  0  0  0  0  0
    1.4631   -3.0593    0.0000 H   0  0  0  0  0  0  0  0  0  0  0  0
    4.2690   -3.0593    0.0000 H   0  0  0  0  0  0  0  0  0  0  0  0
    1.4631   -4.6793    0.0000 H   0  0  0  0  0  0  0  0  0  0  0  0
    4.2690   -4.6793    0.0000 H   0  0  0  0  0  0  0  0  0  0  0  0
    2.8660   -5.4893    0.0000 H   0  0  0  0  0  0  0  0  0  0  0  0
    8.3980    5.3832    0.0000 H   0  0  0  0  0  0  0  0  0  0  0  0
    7.7532    4.9148    0.0000 H   0  0  0  0  0  0  0  0  0  0  0  0
    9.4141    4.2527    0.0000 H   0  0  0  0  0  0  0  0  0  0  0  0
    9.9659    4.9341    0.0000 H   0  0  0  0  0  0  0  0  0  0  0  0
    9.2845    5.4859    0.0000 H   0  0  0  0  0  0  0  0  0  0  0  0
  1  6  1  0  0  0  0
  1 10  1  0  0  0  0
  2 15  1  0  0  0  0
  2 21  1  0  0  0  0
  3 12  2  0  0  0  0
  4 15  2  0  0  0  0
  5  9  1  0  0  0  0
  5 12  1  0  0  0  0
  5 29  1  0  0  0  0
  6 13  2  0  0  0  0
  7  8  1  0  0  0  0
  7  9  1  0  0  0  0
  7 23  1  0  0  0  0
  7 24  1  0  0  0  0
  8 10  1  0  0  0  0
  8 25  1  0  0  0  0
  8 26  1  0  0  0  0
  9 27  1  0  0  0  0
  9 28  1  0  0  0  0
 10 11  2  0  0  0  0
 11 13  1  0  0  0  0
 11 30  1  0  0  0  0
 12 14  1  0  0  0  0
 13 15  1  0  0  0  0
 14 16  2  0  0  0  0
 14 17  1  0  0  0  0
 16 18  1  0  0  0  0
 16 31  1  0  0  0  0
 17 19  2  0  0  0  0
 17 32  1  0  0  0  0
 18 20  2  0  0  0  0
 18 33  1  0  0  0  0
 19 20  1  0  0  0  0
 19 34  1  0  0  0  0
 20 35  1  0  0  0  0
 21 22  1  0  0  0  0
 21 36  1  0  0  0  0
 21 37  1  0  0  0  0
 22 38  1  0  0  0  0
 22 39  1  0  0  0  0
 22 40  1  0  0  0  0
M  END
> <PUBCHEM_COMPOUND_CID>
135348871

> <PUBCHEM_COMPOUND_CANONICALIZED>
1

> <PUBCHEM_CACTVS_COMPLEXITY>
369

> <PUBCHEM_CACTVS_HBOND_ACCEPTOR>
5

> <PUBCHEM_CACTVS_HBOND_DONOR>
1

> <PUBCHEM_CACTVS_ROTATABLE_BOND>
8

> <PUBCHEM_CACTVS_SUBSKEYS>
AAADceB7OAAAAAAAAAAAAAAAAAAAAWAAAAAwAAAAAAAAAAABwAAAHgAUAAAADAzhngYyjJLQBACpA6XyWgSCAAAmIgAomKG+bNoKJjqAtZuHMYhm1hmI6cf/yCCOAAAAAAAAAAAAAAAAAAAAAAAAAAAAAA==

> <PUBCHEM_IUPAC_OPENEYE_NAME>
ethyl 5-(3-benzamidopropyl)isoxazole-3-carboxylate

> <PUBCHEM_IUPAC_CAS_NAME>
5-(3-benzamidopropyl)-3-isoxazolecarboxylic acid ethyl ester

> <PUBCHEM_IUPAC_NAME_MARKUP>
ethyl 5-(3-benzamidopropyl)-1,2-oxazole-3-carboxylate

> <PUBCHEM_IUPAC_NAME>
ethyl 5-(3-benzamidopropyl)-1,2-oxazole-3-carboxylate

> <PUBCHEM_IUPAC_SYSTEMATIC_NAME>
ethyl 5-(3-benzamidopropyl)-1,2-oxazole-3-carboxylate

> <PUBCHEM_IUPAC_TRADITIONAL_NAME>
5-(3-benzamidopropyl)isoxazole-3-carboxylic acid ethyl ester

> <PUBCHEM_IUPAC_INCHI>
InChI=1S/C16H18N2O4/c1-2-21-16(20)14-11-13(22-18-14)9-6-10-17-15(19)12-7-4-3-5-8-12/h3-5,7-8,11H,2,6,9-10H2,1H3,(H,17,19)

> <PUBCHEM_IUPAC_INCHIKEY>
YYQJMVIVPIYEHG-UHFFFAOYSA-N

> <PUBCHEM_XLOGP3_AA>
2.5

> <PUBCHEM_EXACT_MASS>
302.126657

> <PUBCHEM_MOLECULAR_FORMULA>
C16H18N2O4

> <PUBCHEM_MOLECULAR_WEIGHT>
302.32

> <PUBCHEM_OPENEYE_CAN_SMILES>
CCOC(=O)C1=NOC(=C1)CCCNC(=O)C2=CC=CC=C2

> <PUBCHEM_OPENEYE_ISO_SMILES>
CCOC(=O)C1=NOC(=C1)CCCNC(=O)C2=CC=CC=C2

> <PUBCHEM_CACTVS_TPSA>
81.4

> <PUBCHEM_MONOISOTOPIC_WEIGHT>
302.126657

> <PUBCHEM_TOTAL_CHARGE>
0

> <PUBCHEM_HEAVY_ATOM_COUNT>
22

> <PUBCHEM_ATOM_DEF_STEREO_COUNT>
0

> <PUBCHEM_ATOM_UDEF_STEREO_COUNT>
0

> <PUBCHEM_BOND_DEF_STEREO_COUNT>
0

> <PUBCHEM_BOND_UDEF_STEREO_COUNT>
0

> <PUBCHEM_ISOTOPIC_ATOM_COUNT>
0

> <PUBCHEM_COMPONENT_COUNT>
1

> <PUBCHEM_CACTVS_TAUTO_COUNT>
-1

> <PUBCHEM_COORDINATE_TYPE>
1
5
255

> <PUBCHEM_BONDANNOTATIONS>
1  10  8
1  6  8
10  11  8
11  13  8
14  16  8
14  17  8
16  18  8
17  19  8
18  20  8
19  20  8
6  13  8

$$$$
137348504
  -OEChem-02212016592D

 87 90  0     1  0  0  0  0  0999 V2000
    7.4700    1.3559    0.0000 O   0  0  0  0  0  0  0  0  0  0  0  0
    8.8321    1.3559    0.0000 O   0  0  0  0  0  0  0  0  0  0  0  0
    2.3109    1.0423    0.0000 O   0  0  0  0  0  0  0  0  0  0  0  0
    6.7012    3.8874    0.0000 O   0  0  0  0  0  0  0  0  0  0  0  0
    5.1189    4.5919    0.0000 O   0  0  0  0  0  0  0  0  0  0  0  0
   12.2224    0.1287    0.0000 O   0  0  0  0  0  0  0  0  0  0  0  0
   12.9035    3.3902    0.0000 O   0  0  0  0  0  0  0  0  0  0  0  0
    8.6511   -0.3667    0.0000 N   0  0  0  0  0  0  0  0  0  0  0  0
    6.0688    0.3378    0.0000 N   0  0  0  0  0  0  0  0  0  0  0  0
    2.5896    2.8024    0.0000 N   0  0  0  0  0  0  0  0  0  0  0  0
   10.8212    1.1468    0.0000 N   0  0  0  0  0  0  0  0  0  0  0  0
   12.0945    2.8024    0.0000 N   0  0  0  0  0  0  0  0  0  0  0  0
    7.6511   -0.3667    0.0000 C   0  0  1  0  0  0  0  0  0  0  0  0
    8.1511   -1.9055    0.0000 C   0  0  2  0  0  0  0  0  0  0  0  0
    7.3420   -1.3177    0.0000 C   0  0  0  0  0  0  0  0  0  0  0  0
    8.9601   -1.3177    0.0000 C   0  0  0  0  0  0  0  0  0  0  0  0
    7.0633    0.4423    0.0000 C   0  0  0  0  0  0  0  0  0  0  0  0
    5.4810    1.1468    0.0000 C   0  0  1  0  0  0  0  0  0  0  0  0
    8.1511   -2.9055    0.0000 C   0  0  0  0  0  0  0  0  0  0  0  0
    9.2389    0.4423    0.0000 C   0  0  0  0  0  0  0  0  0  0  0  0
    4.4865    1.0423    0.0000 C   0  0  0  0  0  0  0  0  0  0  0  0
    3.8987    1.8513    0.0000 C   0  0  2  0  0  0  0  0  0  0  0  0
   10.2334    0.3378    0.0000 C   0  0  2  0  0  0  0  0  0  0  0  0
    4.2077    2.8024    0.0000 C   0  0  0  0  0  0  0  0  0  0  0  0
    5.8877    2.0604    0.0000 C   0  0  0  0  0  0  0  0  0  0  0  0
   10.6401   -0.5757    0.0000 C   0  0  0  0  0  0  0  0  0  0  0  0
    3.3987    3.3902    0.0000 C   0  0  0  0  0  0  0  0  0  0  0  0
    2.8987    1.8513    0.0000 C   0  0  0  0  0  0  0  0  0  0  0  0
    7.2850   -3.4055    0.0000 C   0  0  0  0  0  0  0  0  0  0  0  0
    9.0171   -3.4055    0.0000 C   0  0  0  0  0  0  0  0  0  0  0  0
    5.2999    2.8694    0.0000 C   0  0  0  0  0  0  0  0  0  0  0  0
   11.6346   -0.6803    0.0000 C   0  0  0  0  0  0  0  0  0  0  0  0
   10.0523   -1.3848    0.0000 C   0  0  0  0  0  0  0  0  0  0  0  0
    7.2850   -4.4055    0.0000 C   0  0  0  0  0  0  0  0  0  0  0  0
    9.0171   -4.4055    0.0000 C   0  0  0  0  0  0  0  0  0  0  0  0
    8.1511   -4.9055    0.0000 C   0  0  0  0  0  0  0  0  0  0  0  0
   11.8157    1.0423    0.0000 C   0  0  0  0  0  0  0  0  0  0  0  0
    5.7067    3.7829    0.0000 C   0  0  0  0  0  0  0  0  0  0  0  0
   12.4035    1.8513    0.0000 C   0  0  0  0  0  0  0  0  0  0  0  0
   13.4035    1.8513    0.0000 C   0  0  0  0  0  0  0  0  0  0  0  0
    7.1079    4.8010    0.0000 C   0  0  0  0  0  0  0  0  0  0  0  0
   13.7125    2.8024    0.0000 C   0  0  0  0  0  0  0  0  0  0  0  0
    8.1024    4.9055    0.0000 C   0  0  0  0  0  0  0  0  0  0  0  0
   14.6635    3.1114    0.0000 C   0  0  0  0  0  0  0  0  0  0  0  0
    7.9326    0.1857    0.0000 H   0  0  0  0  0  0  0  0  0  0  0  0
    8.7035   -2.1870    0.0000 H   0  0  0  0  0  0  0  0  0  0  0  0
    6.7757   -1.0656    0.0000 H   0  0  0  0  0  0  0  0  0  0  0  0
    7.0320   -1.8547    0.0000 H   0  0  0  0  0  0  0  0  0  0  0  0
    9.2701   -1.8547    0.0000 H   0  0  0  0  0  0  0  0  0  0  0  0
    9.5265   -1.0656    0.0000 H   0  0  0  0  0  0  0  0  0  0  0  0
    5.2288    0.5804    0.0000 H   0  0  0  0  0  0  0  0  0  0  0  0
    3.9292    0.7705    0.0000 H   0  0  0  0  0  0  0  0  0  0  0  0
    4.6574    0.4463    0.0000 H   0  0  0  0  0  0  0  0  0  0  0  0
    4.5110    1.9483    0.0000 H   0  0  0  0  0  0  0  0  0  0  0  0
    5.8166   -0.2286    0.0000 H   0  0  0  0  0  0  0  0  0  0  0  0
    9.9812    0.9042    0.0000 H   0  0  0  0  0  0  0  0  0  0  0  0
    4.7741    2.5502    0.0000 H   0  0  0  0  0  0  0  0  0  0  0  0
    4.5177    3.3393    0.0000 H   0  0  0  0  0  0  0  0  0  0  0  0
    6.4017    1.7137    0.0000 H   0  0  0  0  0  0  0  0  0  0  0  0
    6.3184    2.5064    0.0000 H   0  0  0  0  0  0  0  0  0  0  0  0
   11.0045   -0.0742    0.0000 H   0  0  0  0  0  0  0  0  0  0  0  0
    3.8135    3.8509    0.0000 H   0  0  0  0  0  0  0  0  0  0  0  0
    2.9838    3.8509    0.0000 H   0  0  0  0  0  0  0  0  0  0  0  0
    6.7481   -3.0955    0.0000 H   0  0  0  0  0  0  0  0  0  0  0  0
    9.5540   -3.0955    0.0000 H   0  0  0  0  0  0  0  0  0  0  0  0
    2.0000    2.9940    0.0000 H   0  0  0  0  0  0  0  0  0  0  0  0
    4.7859    3.2161    0.0000 H   0  0  0  0  0  0  0  0  0  0  0  0
    4.8692    2.4234    0.0000 H   0  0  0  0  0  0  0  0  0  0  0  0
   10.5690    1.7132    0.0000 H   0  0  0  0  0  0  0  0  0  0  0  0
   11.5698   -1.2969    0.0000 H   0  0  0  0  0  0  0  0  0  0  0  0
   12.2512   -0.7451    0.0000 H   0  0  0  0  0  0  0  0  0  0  0  0
   11.6994   -0.0637    0.0000 H   0  0  0  0  0  0  0  0  0  0  0  0
    9.5507   -1.0203    0.0000 H   0  0  0  0  0  0  0  0  0  0  0  0
    9.6879   -1.8864    0.0000 H   0  0  0  0  0  0  0  0  0  0  0  0
   10.5539   -1.7492    0.0000 H   0  0  0  0  0  0  0  0  0  0  0  0
    6.7481   -4.7155    0.0000 H   0  0  0  0  0  0  0  0  0  0  0  0
    9.5540   -4.7155    0.0000 H   0  0  0  0  0  0  0  0  0  0  0  0
    8.1511   -5.5255    0.0000 H   0  0  0  0  0  0  0  0  0  0  0  0
   13.7679    1.3497    0.0000 H   0  0  0  0  0  0  0  0  0  0  0  0
    7.1512    5.4195    0.0000 H   0  0  0  0  0  0  0  0  0  0  0  0
    6.5063    4.9510    0.0000 H   0  0  0  0  0  0  0  0  0  0  0  0
    8.1673    4.2889    0.0000 H   0  0  0  0  0  0  0  0  0  0  0  0
    8.7190    4.9703    0.0000 H   0  0  0  0  0  0  0  0  0  0  0  0
    8.0376    5.5221    0.0000 H   0  0  0  0  0  0  0  0  0  0  0  0
   14.8551    2.5217    0.0000 H   0  0  0  0  0  0  0  0  0  0  0  0
   15.2532    3.3030    0.0000 H   0  0  0  0  0  0  0  0  0  0  0  0
   14.4720    3.7010    0.0000 H   0  0  0  0  0  0  0  0  0  0  0  0
  1 17  2  0  0  0  0
  2 20  2  0  0  0  0
  3 28  2  0  0  0  0
  4 38  1  0  0  0  0
  4 41  1  0  0  0  0
  5 38  2  0  0  0  0
  6 37  2  0  0  0  0
  7 12  1  0  0  0  0
  7 42  1  0  0  0  0
  8 13  1  0  0  0  0
  8 16  1  0  0  0  0
  8 20  1  0  0  0  0
  9 17  1  0  0  0  0
 18  9  1  1  0  0  0
  9 55  1  0  0  0  0
 10 27  1  0  0  0  0
 10 28  1  0  0  0  0
 10 66  1  0  0  0  0
 23 11  1  1  0  0  0
 11 37  1  0  0  0  0
 11 69  1  0  0  0  0
 12 39  2  0  0  0  0
 13 15  1  0  0  0  0
 13 17  1  1  0  0  0
 13 45  1  0  0  0  0
 14 15  1  0  0  0  0
 14 16  1  0  0  0  0
 14 19  1  6  0  0  0
 14 46  1  0  0  0  0
 15 47  1  0  0  0  0
 15 48  1  0  0  0  0
 16 49  1  0  0  0  0
 16 50  1  0  0  0  0
 18 21  1  0  0  0  0
 18 25  1  0  0  0  0
 18 51  1  0  0  0  0
 19 29  2  0  0  0  0
 19 30  1  0  0  0  0
 20 23  1  0  0  0  0
 22 21  1  1  0  0  0
 21 52  1  0  0  0  0
 21 53  1  0  0  0  0
 22 24  1  0  0  0  0
 22 28  1  0  0  0  0
 22 54  1  0  0  0  0
 23 26  1  0  0  0  0
 23 56  1  0  0  0  0
 24 27  1  0  0  0  0
 24 57  1  0  0  0  0
 24 58  1  0  0  0  0
 25 31  1  0  0  0  0
 25 59  1  0  0  0  0
 25 60  1  0  0  0  0
 26 32  1  0  0  0  0
 26 33  1  0  0  0  0
 26 61  1  0  0  0  0
 27 62  1  0  0  0  0
 27 63  1  0  0  0  0
 29 34  1  0  0  0  0
 29 64  1  0  0  0  0
 30 35  2  0  0  0  0
 30 65  1  0  0  0  0
 31 38  1  0  0  0  0
 31 67  1  0  0  0  0
 31 68  1  0  0  0  0
 32 70  1  0  0  0  0
 32 71  1  0  0  0  0
 32 72  1  0  0  0  0
 33 73  1  0  0  0  0
 33 74  1  0  0  0  0
 33 75  1  0  0  0  0
 34 36  2  0  0  0  0
 34 76  1  0  0  0  0
 35 36  1  0  0  0  0
 35 77  1  0  0  0  0
 36 78  1  0  0  0  0
 37 39  1  0  0  0  0
 39 40  1  0  0  0  0
 40 42  2  0  0  0  0
 40 79  1  0  0  0  0
 41 43  1  0  0  0  0
 41 80  1  0  0  0  0
 41 81  1  0  0  0  0
 42 44  1  0  0  0  0
 43 82  1  0  0  0  0
 43 83  1  0  0  0  0
 43 84  1  0  0  0  0
 44 85  1  0  0  0  0
 44 86  1  0  0  0  0
 44 87  1  0  0  0  0
M  END
> <PUBCHEM_COMPOUND_CID>
137348504

> <PUBCHEM_COMPOUND_CANONICALIZED>
1

> <PUBCHEM_CACTVS_COMPLEXITY>
1030

> <PUBCHEM_CACTVS_HBOND_ACCEPTOR>
8

> <PUBCHEM_CACTVS_HBOND_DONOR>
3

> <PUBCHEM_CACTVS_ROTATABLE_BOND>
14

> <PUBCHEM_CACTVS_SUBSKEYS>
AAADcfB/uAAAAAAAAAAAAAAAAAAAAWLFgAAwAAAAAAAAAAABwAAAHgAUAAAADSzhngYyjJPQBACpA6XyWgCCAAAmIgAomKG+bNoIZjqAlbOWMYhmlhiIyce/yeCOgAAAAAAAAAAAAAAAAAAAAAAAAAAAAA==

> <PUBCHEM_IUPAC_OPENEYE_NAME>
ethyl (4R)-4-[[(2S,4S)-1-[(2S)-3-methyl-2-[(5-methylisoxazole-3-carbonyl)amino]butanoyl]-4-phenyl-pyrrolidine-2-carbonyl]amino]-5-[(3S)-2-oxopyrrolidin-3-yl]pentanoate

> <PUBCHEM_IUPAC_CAS_NAME>
(4R)-4-[[[(2S,4S)-1-[(2S)-3-methyl-2-[[(5-methyl-3-isoxazolyl)-oxomethyl]amino]-1-oxobutyl]-4-phenyl-2-pyrrolidinyl]-oxomethyl]amino]-5-[(3S)-2-oxo-3-pyrrolidinyl]pentanoic acid ethyl ester

> <PUBCHEM_IUPAC_NAME_MARKUP>
ethyl (4<I>R</I>)-4-[[(2<I>S</I>,4<I>S</I>)-1-[(2<I>S</I>)-3-methyl-2-[(5-methyl-1,2-oxazole-3-carbonyl)amino]butanoyl]-4-phenylpyrrolidine-2-carbonyl]amino]-5-[(3<I>S</I>)-2-oxopyrrolidin-3-yl]pentanoate

> <PUBCHEM_IUPAC_NAME>
ethyl (4R)-4-[[(2S,4S)-1-[(2S)-3-methyl-2-[(5-methyl-1,2-oxazole-3-carbonyl)amino]butanoyl]-4-phenylpyrrolidine-2-carbonyl]amino]-5-[(3S)-2-oxopyrrolidin-3-yl]pentanoate

> <PUBCHEM_IUPAC_SYSTEMATIC_NAME>
ethyl (4R)-4-[[(2S,4S)-1-[(2S)-3-methyl-2-[(5-methyl-1,2-oxazol-3-yl)carbonylamino]butanoyl]-4-phenyl-pyrrolidin-2-yl]carbonylamino]-5-[(3S)-2-oxidanylidenepyrrolidin-3-yl]pentanoate

> <PUBCHEM_IUPAC_TRADITIONAL_NAME>
(4R)-5-[(3S)-2-ketopyrrolidin-3-yl]-4-[[(2S,4S)-1-[(2S)-3-methyl-2-[(5-methylisoxazole-3-carbonyl)amino]butanoyl]-4-phenyl-prolyl]amino]valeric acid ethyl ester

> <PUBCHEM_IUPAC_INCHI>
InChI=1S/C32H43N5O7/c1-5-43-27(38)12-11-24(16-22-13-14-33-29(22)39)34-31(41)26-17-23(21-9-7-6-8-10-21)18-37(26)32(42)28(19(2)3)35-30(40)25-15-20(4)44-36-25/h6-10,15,19,22-24,26,28H,5,11-14,16-18H2,1-4H3,(H,33,39)(H,34,41)(H,35,40)/t22-,23+,24+,26-,28-/m0/s1

> <PUBCHEM_IUPAC_INCHIKEY>
VXYKULSXGSKGQQ-OSKYGDQXSA-N

> <PUBCHEM_XLOGP3_AA>
2.9

> <PUBCHEM_EXACT_MASS>
609.316249

> <PUBCHEM_MOLECULAR_FORMULA>
C32H43N5O7

> <PUBCHEM_MOLECULAR_WEIGHT>
609.7

> <PUBCHEM_OPENEYE_CAN_SMILES>
CCOC(=O)CCC(CC1CCNC1=O)NC(=O)C2CC(CN2C(=O)C(C(C)C)NC(=O)C3=NOC(=C3)C)C4=CC=CC=C4

> <PUBCHEM_OPENEYE_ISO_SMILES>
CCOC(=O)CC[C@H](C[C@@H]1CCNC1=O)NC(=O)[C@@H]2C[C@H](CN2C(=O)[C@H](C(C)C)NC(=O)C3=NOC(=C3)C)C4=CC=CC=C4

> <PUBCHEM_CACTVS_TPSA>
160

> <PUBCHEM_MONOISOTOPIC_WEIGHT>
609.316249

> <PUBCHEM_TOTAL_CHARGE>
0

> <PUBCHEM_HEAVY_ATOM_COUNT>
44

> <PUBCHEM_ATOM_DEF_STEREO_COUNT>
5

> <PUBCHEM_ATOM_UDEF_STEREO_COUNT>
0

> <PUBCHEM_BOND_DEF_STEREO_COUNT>
0

> <PUBCHEM_BOND_UDEF_STEREO_COUNT>
0

> <PUBCHEM_ISOTOPIC_ATOM_COUNT>
0

> <PUBCHEM_COMPONENT_COUNT>
1

> <PUBCHEM_CACTVS_TAUTO_COUNT>
-1

> <PUBCHEM_COORDINATE_TYPE>
1
5
255

> <PUBCHEM_BONDANNOTATIONS>
23  11  5
12  39  8
13  17  5
14  19  6
19  29  8
19  30  8
22  21  5
29  34  8
30  35  8
34  36  8
35  36  8
39  40  8
40  42  8
7  12  8
7  42  8
18  9  5

$$$$
137349527
  -OEChem-02212016592D

 87 90  0     1  0  0  0  0  0999 V2000
    7.3882   -2.8939    0.0000 O   0  0  0  0  0  0  0  0  0  0  0  0
    7.2739    0.0488    0.0000 O   0  0  0  0  0  0  0  0  0  0  0  0
    3.3987    0.3923    0.0000 O   0  0  0  0  0  0  0  0  0  0  0  0
    5.2782   -4.4900    0.0000 O   0  0  0  0  0  0  0  0  0  0  0  0
    3.5840   -4.1299    0.0000 O   0  0  0  0  0  0  0  0  0  0  0  0
    9.4886    2.8940    0.0000 O   0  0  0  0  0  0  0  0  0  0  0  0
    6.5973    4.5496    0.0000 O   0  0  0  0  0  0  0  0  0  0  0  0
    8.8562   -0.6557    0.0000 N   0  0  0  0  0  0  0  0  0  0  0  0
    6.8530   -1.2466    0.0000 N   0  0  0  0  0  0  0  0  0  0  0  0
    2.5896   -1.1955    0.0000 N   0  0  0  0  0  0  0  0  0  0  0  0
    8.0873    1.8759    0.0000 N   0  0  0  0  0  0  0  0  0  0  0  0
    6.9063    3.5985    0.0000 N   0  0  0  0  0  0  0  0  0  0  0  0
    9.3562   -2.1945    0.0000 C   0  0  2  0  0  0  0  0  0  0  0  0
    8.5472   -1.6067    0.0000 C   0  0  1  0  0  0  0  0  0  0  0  0
   10.1652   -1.6067    0.0000 C   0  0  0  0  0  0  0  0  0  0  0  0
    9.8562   -0.6557    0.0000 C   0  0  0  0  0  0  0  0  0  0  0  0
    7.5961   -1.9157    0.0000 C   0  0  0  0  0  0  0  0  0  0  0  0
    9.3562   -3.1945    0.0000 C   0  0  0  0  0  0  0  0  0  0  0  0
    5.9019   -1.5556    0.0000 C   0  0  1  0  0  0  0  0  0  0  0  0
    8.2684    0.1534    0.0000 C   0  0  0  0  0  0  0  0  0  0  0  0
    5.1588   -0.8865    0.0000 C   0  0  0  0  0  0  0  0  0  0  0  0
    4.2077   -1.1955    0.0000 C   0  0  2  0  0  0  0  0  0  0  0  0
    8.6751    1.0669    0.0000 C   0  0  2  0  0  0  0  0  0  0  0  0
    5.6940   -2.5338    0.0000 C   0  0  0  0  0  0  0  0  0  0  0  0
    3.8987   -2.1466    0.0000 C   0  0  0  0  0  0  0  0  0  0  0  0
    9.6696    1.1714    0.0000 C   0  0  0  0  0  0  0  0  0  0  0  0
    2.8987   -2.1466    0.0000 C   0  0  0  0  0  0  0  0  0  0  0  0
    8.4901   -3.6945    0.0000 C   0  0  0  0  0  0  0  0  0  0  0  0
   10.2222   -3.6945    0.0000 C   0  0  0  0  0  0  0  0  0  0  0  0
    3.3987   -0.6077    0.0000 C   0  0  0  0  0  0  0  0  0  0  0  0
    4.7429   -2.8428    0.0000 C   0  0  0  0  0  0  0  0  0  0  0  0
   10.0764    2.0850    0.0000 C   0  0  0  0  0  0  0  0  0  0  0  0
   10.2574    0.3624    0.0000 C   0  0  0  0  0  0  0  0  0  0  0  0
    8.4901   -4.6945    0.0000 C   0  0  0  0  0  0  0  0  0  0  0  0
   10.2222   -4.6945    0.0000 C   0  0  0  0  0  0  0  0  0  0  0  0
    9.3562   -5.1945    0.0000 C   0  0  0  0  0  0  0  0  0  0  0  0
    4.5350   -3.8209    0.0000 C   0  0  0  0  0  0  0  0  0  0  0  0
    8.4941    2.7895    0.0000 C   0  0  0  0  0  0  0  0  0  0  0  0
    7.9063    3.5985    0.0000 C   0  0  0  0  0  0  0  0  0  0  0  0
    8.2153    4.5496    0.0000 C   0  0  0  0  0  0  0  0  0  0  0  0
    5.0702   -5.4682    0.0000 C   0  0  0  0  0  0  0  0  0  0  0  0
    7.4063    5.1373    0.0000 C   0  0  0  0  0  0  0  0  0  0  0  0
    5.8134   -6.1373    0.0000 C   0  0  0  0  0  0  0  0  0  0  0  0
    7.4063    6.1373    0.0000 C   0  0  0  0  0  0  0  0  0  0  0  0
    8.8037   -2.4760    0.0000 H   0  0  0  0  0  0  0  0  0  0  0  0
    8.1087   -1.1683    0.0000 H   0  0  0  0  0  0  0  0  0  0  0  0
   10.4752   -2.1436    0.0000 H   0  0  0  0  0  0  0  0  0  0  0  0
   10.7316   -1.3545    0.0000 H   0  0  0  0  0  0  0  0  0  0  0  0
   10.4626   -0.5267    0.0000 H   0  0  0  0  0  0  0  0  0  0  0  0
    9.7914   -0.0390    0.0000 H   0  0  0  0  0  0  0  0  0  0  0  0
    6.0308   -0.9492    0.0000 H   0  0  0  0  0  0  0  0  0  0  0  0
    5.6473   -0.5048    0.0000 H   0  0  0  0  0  0  0  0  0  0  0  0
    4.8677   -0.3391    0.0000 H   0  0  0  0  0  0  0  0  0  0  0  0
    4.3047   -0.5831    0.0000 H   0  0  0  0  0  0  0  0  0  0  0  0
    6.9818   -0.6401    0.0000 H   0  0  0  0  0  0  0  0  0  0  0  0
    8.0585    1.0021    0.0000 H   0  0  0  0  0  0  0  0  0  0  0  0
    5.7803   -3.1477    0.0000 H   0  0  0  0  0  0  0  0  0  0  0  0
    6.3136   -2.5554    0.0000 H   0  0  0  0  0  0  0  0  0  0  0  0
    3.8339   -2.7632    0.0000 H   0  0  0  0  0  0  0  0  0  0  0  0
    4.5051   -2.2755    0.0000 H   0  0  0  0  0  0  0  0  0  0  0  0
   10.2862    1.2362    0.0000 H   0  0  0  0  0  0  0  0  0  0  0  0
    2.2922   -2.2755    0.0000 H   0  0  0  0  0  0  0  0  0  0  0  0
    2.9635   -2.7632    0.0000 H   0  0  0  0  0  0  0  0  0  0  0  0
    7.9532   -3.3845    0.0000 H   0  0  0  0  0  0  0  0  0  0  0  0
   10.7591   -3.3845    0.0000 H   0  0  0  0  0  0  0  0  0  0  0  0
    2.0000   -1.0039    0.0000 H   0  0  0  0  0  0  0  0  0  0  0  0
    4.6566   -2.2288    0.0000 H   0  0  0  0  0  0  0  0  0  0  0  0
    4.1233   -2.8211    0.0000 H   0  0  0  0  0  0  0  0  0  0  0  0
    7.4707    1.8111    0.0000 H   0  0  0  0  0  0  0  0  0  0  0  0
   10.6428    1.8328    0.0000 H   0  0  0  0  0  0  0  0  0  0  0  0
   10.3286    2.6514    0.0000 H   0  0  0  0  0  0  0  0  0  0  0  0
    9.5100    2.3372    0.0000 H   0  0  0  0  0  0  0  0  0  0  0  0
    9.7558   -0.0020    0.0000 H   0  0  0  0  0  0  0  0  0  0  0  0
   10.6219   -0.1392    0.0000 H   0  0  0  0  0  0  0  0  0  0  0  0
   10.7590    0.7268    0.0000 H   0  0  0  0  0  0  0  0  0  0  0  0
    7.9532   -5.0045    0.0000 H   0  0  0  0  0  0  0  0  0  0  0  0
   10.7591   -5.0045    0.0000 H   0  0  0  0  0  0  0  0  0  0  0  0
    9.3562   -5.8145    0.0000 H   0  0  0  0  0  0  0  0  0  0  0  0
    8.8050    4.7411    0.0000 H   0  0  0  0  0  0  0  0  0  0  0  0
    4.4954   -5.2360    0.0000 H   0  0  0  0  0  0  0  0  0  0  0  0
    4.7417   -5.9940    0.0000 H   0  0  0  0  0  0  0  0  0  0  0  0
    5.3985   -6.5981    0.0000 H   0  0  0  0  0  0  0  0  0  0  0  0
    6.2741   -6.5522    0.0000 H   0  0  0  0  0  0  0  0  0  0  0  0
    6.2282   -5.6766    0.0000 H   0  0  0  0  0  0  0  0  0  0  0  0
    8.0263    6.1373    0.0000 H   0  0  0  0  0  0  0  0  0  0  0  0
    7.4063    6.7573    0.0000 H   0  0  0  0  0  0  0  0  0  0  0  0
    6.7863    6.1373    0.0000 H   0  0  0  0  0  0  0  0  0  0  0  0
  1 17  2  0  0  0  0
  2 20  2  0  0  0  0
  3 30  2  0  0  0  0
  4 37  1  0  0  0  0
  4 41  1  0  0  0  0
  5 37  2  0  0  0  0
  6 38  2  0  0  0  0
  7 12  1  0  0  0  0
  7 42  1  0  0  0  0
  8 14  1  0  0  0  0
  8 16  1  0  0  0  0
  8 20  1  0  0  0  0
  9 17  1  0  0  0  0
 19  9  1  6  0  0  0
  9 55  1  0  0  0  0
 10 27  1  0  0  0  0
 10 30  1  0  0  0  0
 10 66  1  0  0  0  0
 23 11  1  1  0  0  0
 11 38  1  0  0  0  0
 11 69  1  0  0  0  0
 12 39  2  0  0  0  0
 13 14  1  0  0  0  0
 13 15  1  0  0  0  0
 13 18  1  6  0  0  0
 13 45  1  0  0  0  0
 14 17  1  1  0  0  0
 14 46  1  0  0  0  0
 15 16  1  0  0  0  0
 15 47  1  0  0  0  0
 15 48  1  0  0  0  0
 16 49  1  0  0  0  0
 16 50  1  0  0  0  0
 18 28  2  0  0  0  0
 18 29  1  0  0  0  0
 19 21  1  0  0  0  0
 19 24  1  0  0  0  0
 19 51  1  0  0  0  0
 20 23  1  0  0  0  0
 22 21  1  6  0  0  0
 21 52  1  0  0  0  0
 21 53  1  0  0  0  0
 22 25  1  0  0  0  0
 22 30  1  0  0  0  0
 22 54  1  0  0  0  0
 23 26  1  0  0  0  0
 23 56  1  0  0  0  0
 24 31  1  0  0  0  0
 24 57  1  0  0  0  0
 24 58  1  0  0  0  0
 25 27  1  0  0  0  0
 25 59  1  0  0  0  0
 25 60  1  0  0  0  0
 26 32  1  0  0  0  0
 26 33  1  0  0  0  0
 26 61  1  0  0  0  0
 27 62  1  0  0  0  0
 27 63  1  0  0  0  0
 28 34  1  0  0  0  0
 28 64  1  0  0  0  0
 29 35  2  0  0  0  0
 29 65  1  0  0  0  0
 31 37  1  0  0  0  0
 31 67  1  0  0  0  0
 31 68  1  0  0  0  0
 32 70  1  0  0  0  0
 32 71  1  0  0  0  0
 32 72  1  0  0  0  0
 33 73  1  0  0  0  0
 33 74  1  0  0  0  0
 33 75  1  0  0  0  0
 34 36  2  0  0  0  0
 34 76  1  0  0  0  0
 35 36  1  0  0  0  0
 35 77  1  0  0  0  0
 36 78  1  0  0  0  0
 38 39  1  0  0  0  0
 39 40  1  0  0  0  0
 40 42  2  0  0  0  0
 40 79  1  0  0  0  0
 41 43  1  0  0  0  0
 41 80  1  0  0  0  0
 41 81  1  0  0  0  0
 42 44  1  0  0  0  0
 43 82  1  0  0  0  0
 43 83  1  0  0  0  0
 43 84  1  0  0  0  0
 44 85  1  0  0  0  0
 44 86  1  0  0  0  0
 44 87  1  0  0  0  0
M  END
> <PUBCHEM_COMPOUND_CID>
137349527

> <PUBCHEM_COMPOUND_CANONICALIZED>
1

> <PUBCHEM_CACTVS_COMPLEXITY>
1030

> <PUBCHEM_CACTVS_HBOND_ACCEPTOR>
8

> <PUBCHEM_CACTVS_HBOND_DONOR>
3

> <PUBCHEM_CACTVS_ROTATABLE_BOND>
14

> <PUBCHEM_CACTVS_SUBSKEYS>
AAADcfB/uAAAAAAAAAAAAAAAAAAAAWLFgAAwAAAAAAAAAAABwAAAHgAUAAAADSzhngYyjJPQBACpA6XyWgCCAAAmIgAomKG+bNoIZjqAlbOWMYhmlhiIyce/yeCOgAAAAAAAAAAAAAAAAAAAAAAAAAAAAA==

> <PUBCHEM_IUPAC_OPENEYE_NAME>
ethyl (4R)-4-[[(2S,3R)-1-[(2S)-3-methyl-2-[(5-methylisoxazole-3-carbonyl)amino]butanoyl]-3-phenyl-pyrrolidine-2-carbonyl]amino]-5-[(3S)-2-oxopyrrolidin-3-yl]pentanoate

> <PUBCHEM_IUPAC_CAS_NAME>
(4R)-4-[[[(2S,3R)-1-[(2S)-3-methyl-2-[[(5-methyl-3-isoxazolyl)-oxomethyl]amino]-1-oxobutyl]-3-phenyl-2-pyrrolidinyl]-oxomethyl]amino]-5-[(3S)-2-oxo-3-pyrrolidinyl]pentanoic acid ethyl ester

> <PUBCHEM_IUPAC_NAME_MARKUP>
ethyl (4<I>R</I>)-4-[[(2<I>S</I>,3<I>R</I>)-1-[(2<I>S</I>)-3-methyl-2-[(5-methyl-1,2-oxazole-3-carbonyl)amino]butanoyl]-3-phenylpyrrolidine-2-carbonyl]amino]-5-[(3<I>S</I>)-2-oxopyrrolidin-3-yl]pentanoate

> <PUBCHEM_IUPAC_NAME>
ethyl (4R)-4-[[(2S,3R)-1-[(2S)-3-methyl-2-[(5-methyl-1,2-oxazole-3-carbonyl)amino]butanoyl]-3-phenylpyrrolidine-2-carbonyl]amino]-5-[(3S)-2-oxopyrrolidin-3-yl]pentanoate

> <PUBCHEM_IUPAC_SYSTEMATIC_NAME>
ethyl (4R)-4-[[(2S,3R)-1-[(2S)-3-methyl-2-[(5-methyl-1,2-oxazol-3-yl)carbonylamino]butanoyl]-3-phenyl-pyrrolidin-2-yl]carbonylamino]-5-[(3S)-2-oxidanylidenepyrrolidin-3-yl]pentanoate

> <PUBCHEM_IUPAC_TRADITIONAL_NAME>
(4R)-5-[(3S)-2-ketopyrrolidin-3-yl]-4-[[(2S,3R)-1-[(2S)-3-methyl-2-[(5-methylisoxazole-3-carbonyl)amino]butanoyl]-3-phenyl-prolyl]amino]valeric acid ethyl ester

> <PUBCHEM_IUPAC_INCHI>
InChI=1S/C32H43N5O7/c1-5-43-26(38)12-11-23(18-22-13-15-33-29(22)39)34-31(41)28-24(21-9-7-6-8-10-21)14-16-37(28)32(42)27(19(2)3)35-30(40)25-17-20(4)44-36-25/h6-10,17,19,22-24,27-28H,5,11-16,18H2,1-4H3,(H,33,39)(H,34,41)(H,35,40)/t22-,23+,24+,27-,28-/m0/s1

> <PUBCHEM_IUPAC_INCHIKEY>
CVLPPZUDRJEOCI-RTOJZCGHSA-N

> <PUBCHEM_XLOGP3_AA>
2.9

> <PUBCHEM_EXACT_MASS>
609.316249

> <PUBCHEM_MOLECULAR_FORMULA>
C32H43N5O7

> <PUBCHEM_MOLECULAR_WEIGHT>
609.7

> <PUBCHEM_OPENEYE_CAN_SMILES>
CCOC(=O)CCC(CC1CCNC1=O)NC(=O)C2C(CCN2C(=O)C(C(C)C)NC(=O)C3=NOC(=C3)C)C4=CC=CC=C4

> <PUBCHEM_OPENEYE_ISO_SMILES>
CCOC(=O)CC[C@H](C[C@@H]1CCNC1=O)NC(=O)[C@@H]2[C@H](CCN2C(=O)[C@H](C(C)C)NC(=O)C3=NOC(=C3)C)C4=CC=CC=C4

> <PUBCHEM_CACTVS_TPSA>
160

> <PUBCHEM_MONOISOTOPIC_WEIGHT>
609.316249

> <PUBCHEM_TOTAL_CHARGE>
0

> <PUBCHEM_HEAVY_ATOM_COUNT>
44

> <PUBCHEM_ATOM_DEF_STEREO_COUNT>
5

> <PUBCHEM_ATOM_UDEF_STEREO_COUNT>
0

> <PUBCHEM_BOND_DEF_STEREO_COUNT>
0

> <PUBCHEM_BOND_UDEF_STEREO_COUNT>
0

> <PUBCHEM_ISOTOPIC_ATOM_COUNT>
0

> <PUBCHEM_COMPONENT_COUNT>
1

> <PUBCHEM_CACTVS_TAUTO_COUNT>
-1

> <PUBCHEM_COORDINATE_TYPE>
1
5
255

> <PUBCHEM_BONDANNOTATIONS>
23  11  5
12  39  8
13  18  6
14  17  5
18  28  8
18  29  8
22  21  6
28  34  8
29  35  8
34  36  8
35  36  8
39  40  8
40  42  8
7  12  8
7  42  8
19  9  6

$$$$
137652659
  -OEChem-02212016592D

 82 84  0     1  0  0  0  0  0999 V2000
    5.4641   -5.2702    0.0000 F   0  0  0  0  0  0  0  0  0  0  0  0
    8.0902    3.5086    0.0000 O   0  0  0  0  0  0  0  0  0  0  0  0
    7.1962    0.7298    0.0000 O   0  0  0  0  0  0  0  0  0  0  0  0
    8.0622    0.2298    0.0000 O   0  0  0  0  0  0  0  0  0  0  0  0
    2.8660    3.2298    0.0000 O   0  0  0  0  0  0  0  0  0  0  0  0
   10.6603   -2.2702    0.0000 O   0  0  0  0  0  0  0  0  0  0  0  0
    2.0000    1.7298    0.0000 O   0  0  0  0  0  0  0  0  0  0  0  0
   12.6090    0.4322    0.0000 O   0  0  0  0  0  0  0  0  0  0  0  0
    6.8301    4.7686    0.0000 N   0  0  0  0  0  0  0  0  0  0  0  0
    5.4641    0.7298    0.0000 N   0  0  0  0  0  0  0  0  0  0  0  0
    9.7942   -0.7702    0.0000 N   0  0  0  0  0  0  0  0  0  0  0  0
   11.6308    0.2243    0.0000 N   0  0  0  0  0  0  0  0  0  0  0  0
    6.3301    3.2298    0.0000 C   0  0  2  0  0  0  0  0  0  0  0  0
    6.3301    2.2298    0.0000 C   0  0  0  0  0  0  0  0  0  0  0  0
    5.5211    3.8176    0.0000 C   0  0  0  0  0  0  0  0  0  0  0  0
    5.4641    1.7298    0.0000 C   0  0  3  0  0  0  0  0  0  0  0  0
    5.8301    4.7686    0.0000 C   0  0  0  0  0  0  0  0  0  0  0  0
    7.1391    3.8176    0.0000 C   0  0  0  0  0  0  0  0  0  0  0  0
    6.3301   -0.7702    0.0000 C   0  0  2  0  0  0  0  0  0  0  0  0
    7.1962   -1.2702    0.0000 C   0  0  0  0  0  0  0  0  0  0  0  0
    6.3301    0.2298    0.0000 C   0  0  0  0  0  0  0  0  0  0  0  0
    8.9282   -1.2702    0.0000 C   0  0  1  0  0  0  0  0  0  0  0  0
    5.4641   -1.2702    0.0000 C   0  0  0  0  0  0  0  0  0  0  0  0
    8.9282   -2.2702    0.0000 C   0  0  0  0  0  0  0  0  0  0  0  0
    8.0622   -0.7702    0.0000 C   0  0  0  0  0  0  0  0  0  0  0  0
    4.5981    2.2298    0.0000 C   0  0  0  0  0  0  0  0  0  0  0  0
    5.4641   -2.2702    0.0000 C   0  0  0  0  0  0  0  0  0  0  0  0
    9.7942   -2.7702    0.0000 C   0  0  0  0  0  0  0  0  0  0  0  0
    8.0622   -2.7702    0.0000 C   0  0  0  0  0  0  0  0  0  0  0  0
    3.7320    1.7298    0.0000 C   0  0  0  0  0  0  0  0  0  0  0  0
    6.3301   -2.7702    0.0000 C   0  0  0  0  0  0  0  0  0  0  0  0
    4.5981   -2.7702    0.0000 C   0  0  0  0  0  0  0  0  0  0  0  0
   10.6603   -1.2702    0.0000 C   0  0  0  0  0  0  0  0  0  0  0  0
    2.8660    2.2298    0.0000 C   0  0  0  0  0  0  0  0  0  0  0  0
    6.3301   -3.7702    0.0000 C   0  0  0  0  0  0  0  0  0  0  0  0
    4.5981   -3.7702    0.0000 C   0  0  0  0  0  0  0  0  0  0  0  0
   11.5263   -0.7702    0.0000 C   0  0  0  0  0  0  0  0  0  0  0  0
    5.4641   -4.2702    0.0000 C   0  0  0  0  0  0  0  0  0  0  0  0
   12.4398   -1.1770    0.0000 C   0  0  0  0  0  0  0  0  0  0  0  0
   13.1090   -0.4338    0.0000 C   0  0  0  0  0  0  0  0  0  0  0  0
    2.0000    3.7298    0.0000 C   0  0  0  0  0  0  0  0  0  0  0  0
   14.1035   -0.5383    0.0000 C   0  0  0  0  0  0  0  0  0  0  0  0
    2.0000    4.7298    0.0000 C   0  0  0  0  0  0  0  0  0  0  0  0
    6.8826    2.9483    0.0000 H   0  0  0  0  0  0  0  0  0  0  0  0
    6.5422    1.6472    0.0000 H   0  0  0  0  0  0  0  0  0  0  0  0
    6.9407    2.3374    0.0000 H   0  0  0  0  0  0  0  0  0  0  0  0
    4.9547    4.0698    0.0000 H   0  0  0  0  0  0  0  0  0  0  0  0
    5.2111    3.2806    0.0000 H   0  0  0  0  0  0  0  0  0  0  0  0
    6.0010    1.4198    0.0000 H   0  0  0  0  0  0  0  0  0  0  0  0
    5.8949    5.3852    0.0000 H   0  0  0  0  0  0  0  0  0  0  0  0
    5.2237    4.8975    0.0000 H   0  0  0  0  0  0  0  0  0  0  0  0
    6.8671   -0.4602    0.0000 H   0  0  0  0  0  0  0  0  0  0  0  0
    7.1946    5.2702    0.0000 H   0  0  0  0  0  0  0  0  0  0  0  0
    6.7976   -1.7452    0.0000 H   0  0  0  0  0  0  0  0  0  0  0  0
    7.5947   -1.7452    0.0000 H   0  0  0  0  0  0  0  0  0  0  0  0
    4.9272    0.4198    0.0000 H   0  0  0  0  0  0  0  0  0  0  0  0
    8.9282   -0.6502    0.0000 H   0  0  0  0  0  0  0  0  0  0  0  0
    5.2520   -0.6876    0.0000 H   0  0  0  0  0  0  0  0  0  0  0  0
    4.8535   -1.3779    0.0000 H   0  0  0  0  0  0  0  0  0  0  0  0
    9.4651   -1.9602    0.0000 H   0  0  0  0  0  0  0  0  0  0  0  0
    4.5981    2.8498    0.0000 H   0  0  0  0  0  0  0  0  0  0  0  0
    9.7942   -0.1502    0.0000 H   0  0  0  0  0  0  0  0  0  0  0  0
    9.4842   -3.3072    0.0000 H   0  0  0  0  0  0  0  0  0  0  0  0
   10.3312   -3.0802    0.0000 H   0  0  0  0  0  0  0  0  0  0  0  0
   10.1042   -2.2333    0.0000 H   0  0  0  0  0  0  0  0  0  0  0  0
    7.7522   -2.2333    0.0000 H   0  0  0  0  0  0  0  0  0  0  0  0
    7.5252   -3.0802    0.0000 H   0  0  0  0  0  0  0  0  0  0  0  0
    8.3722   -3.3072    0.0000 H   0  0  0  0  0  0  0  0  0  0  0  0
    3.7320    1.1098    0.0000 H   0  0  0  0  0  0  0  0  0  0  0  0
    6.8671   -2.4602    0.0000 H   0  0  0  0  0  0  0  0  0  0  0  0
    4.0611   -2.4602    0.0000 H   0  0  0  0  0  0  0  0  0  0  0  0
    6.8671   -4.0802    0.0000 H   0  0  0  0  0  0  0  0  0  0  0  0
    4.0611   -4.0802    0.0000 H   0  0  0  0  0  0  0  0  0  0  0  0
   12.5687   -1.7834    0.0000 H   0  0  0  0  0  0  0  0  0  0  0  0
    1.3894    3.8374    0.0000 H   0  0  0  0  0  0  0  0  0  0  0  0
    1.7880    3.1472    0.0000 H   0  0  0  0  0  0  0  0  0  0  0  0
   14.0387   -1.1549    0.0000 H   0  0  0  0  0  0  0  0  0  0  0  0
   14.7201   -0.6031    0.0000 H   0  0  0  0  0  0  0  0  0  0  0  0
   14.1683    0.0783    0.0000 H   0  0  0  0  0  0  0  0  0  0  0  0
    2.6200    4.7298    0.0000 H   0  0  0  0  0  0  0  0  0  0  0  0
    2.0000    5.3498    0.0000 H   0  0  0  0  0  0  0  0  0  0  0  0
    1.3800    4.7298    0.0000 H   0  0  0  0  0  0  0  0  0  0  0  0
  1 38  1  0  0  0  0
  2 18  2  0  0  0  0
  3 21  2  0  0  0  0
  4 25  2  0  0  0  0
  5 34  1  0  0  0  0
  5 41  1  0  0  0  0
  6 33  2  0  0  0  0
  7 34  2  0  0  0  0
  8 12  1  0  0  0  0
  8 40  1  0  0  0  0
  9 17  1  0  0  0  0
  9 18  1  0  0  0  0
  9 53  1  0  0  0  0
 10 16  1  0  0  0  0
 10 21  1  0  0  0  0
 10 56  1  0  0  0  0
 22 11  1  1  0  0  0
 11 33  1  0  0  0  0
 11 62  1  0  0  0  0
 12 37  2  0  0  0  0
 13 14  1  6  0  0  0
 13 15  1  0  0  0  0
 13 18  1  0  0  0  0
 13 44  1  0  0  0  0
 14 16  1  0  0  0  0
 14 45  1  0  0  0  0
 14 46  1  0  0  0  0
 15 17  1  0  0  0  0
 15 47  1  0  0  0  0
 15 48  1  0  0  0  0
 16 26  1  0  0  0  0
 16 49  1  0  0  0  0
 17 50  1  0  0  0  0
 17 51  1  0  0  0  0
 19 20  1  1  0  0  0
 19 21  1  0  0  0  0
 19 23  1  0  0  0  0
 19 52  1  0  0  0  0
 20 25  1  0  0  0  0
 20 54  1  0  0  0  0
 20 55  1  0  0  0  0
 22 24  1  0  0  0  0
 22 25  1  0  0  0  0
 22 57  1  0  0  0  0
 23 27  1  0  0  0  0
 23 58  1  0  0  0  0
 23 59  1  0  0  0  0
 24 28  1  0  0  0  0
 24 29  1  0  0  0  0
 24 60  1  0  0  0  0
 26 30  2  0  0  0  0
 26 61  1  0  0  0  0
 27 31  2  0  0  0  0
 27 32  1  0  0  0  0
 28 63  1  0  0  0  0
 28 64  1  0  0  0  0
 28 65  1  0  0  0  0
 29 66  1  0  0  0  0
 29 67  1  0  0  0  0
 29 68  1  0  0  0  0
 30 34  1  0  0  0  0
 30 69  1  0  0  0  0
 31 35  1  0  0  0  0
 31 70  1  0  0  0  0
 32 36  2  0  0  0  0
 32 71  1  0  0  0  0
 33 37  1  0  0  0  0
 35 38  2  0  0  0  0
 35 72  1  0  0  0  0
 36 38  1  0  0  0  0
 36 73  1  0  0  0  0
 37 39  1  0  0  0  0
 39 40  2  0  0  0  0
 39 74  1  0  0  0  0
 40 42  1  0  0  0  0
 41 43  1  0  0  0  0
 41 75  1  0  0  0  0
 41 76  1  0  0  0  0
 42 77  1  0  0  0  0
 42 78  1  0  0  0  0
 42 79  1  0  0  0  0
 43 80  1  0  0  0  0
 43 81  1  0  0  0  0
 43 82  1  0  0  0  0
M  END
> <PUBCHEM_COMPOUND_CID>
137652659

> <PUBCHEM_COMPOUND_CANONICALIZED>
1

> <PUBCHEM_CACTVS_COMPLEXITY>
1010

> <PUBCHEM_CACTVS_HBOND_ACCEPTOR>
9

> <PUBCHEM_CACTVS_HBOND_DONOR>
3

> <PUBCHEM_CACTVS_ROTATABLE_BOND>
16

> <PUBCHEM_CACTVS_SUBSKEYS>
AAADcfB7uQAAAAAAAAAAAAAAAAAAAWLAAAAwAAAAAAAAAAABwAAAHwAUAAAADSzhng4yjJLQBACpA6XyWgCCAAAmIgAomKG+bNoIZjqAtbOWMYhmlhiI6cc/icCeAAAAAAAAAAAAAAAAAAAAAAAAAAAAAA==

> <PUBCHEM_IUPAC_OPENEYE_NAME>
ethyl (E)-4-[[(2R,5S)-2-[(4-fluorophenyl)methyl]-6-methyl-5-[(5-methylisoxazole-3-carbonyl)amino]-4-oxo-heptanoyl]amino]-5-[(3S)-2-oxopyrrolidin-3-yl]pent-2-enoate

> <PUBCHEM_IUPAC_CAS_NAME>
(E)-4-[[(2R,5S)-2-[(4-fluorophenyl)methyl]-6-methyl-5-[[(5-methyl-3-isoxazolyl)-oxomethyl]amino]-1,4-dioxoheptyl]amino]-5-[(3S)-2-oxo-3-pyrrolidinyl]-2-pentenoic acid ethyl ester

> <PUBCHEM_IUPAC_NAME_MARKUP>
ethyl (<I>E</I>)-4-[[(2<I>R</I>,5<I>S</I>)-2-[(4-fluorophenyl)methyl]-6-methyl-5-[(5-methyl-1,2-oxazole-3-carbonyl)amino]-4-oxoheptanoyl]amino]-5-[(3<I>S</I>)-2-oxopyrrolidin-3-yl]pent-2-enoate

> <PUBCHEM_IUPAC_NAME>
ethyl (E)-4-[[(2R,5S)-2-[(4-fluorophenyl)methyl]-6-methyl-5-[(5-methyl-1,2-oxazole-3-carbonyl)amino]-4-oxoheptanoyl]amino]-5-[(3S)-2-oxopyrrolidin-3-yl]pent-2-enoate

> <PUBCHEM_IUPAC_SYSTEMATIC_NAME>
ethyl (E)-4-[[(2R,5S)-2-[(4-fluorophenyl)methyl]-6-methyl-5-[(5-methyl-1,2-oxazol-3-yl)carbonylamino]-4-oxidanylidene-heptanoyl]amino]-5-[(3S)-2-oxidanylidenepyrrolidin-3-yl]pent-2-enoate

> <PUBCHEM_IUPAC_TRADITIONAL_NAME>
(E)-4-[[(2R,5S)-2-(4-fluorobenzyl)-4-keto-6-methyl-5-[(5-methylisoxazole-3-carbonyl)amino]heptanoyl]amino]-5-[(3S)-2-ketopyrrolidin-3-yl]pent-2-enoic acid ethyl ester

> <PUBCHEM_IUPAC_INCHI>
InChI=1S/C31H39FN4O7/c1-5-42-27(38)11-10-24(16-21-12-13-33-29(21)39)34-30(40)22(15-20-6-8-23(32)9-7-20)17-26(37)28(18(2)3)35-31(41)25-14-19(4)43-36-25/h6-11,14,18,21-22,24,28H,5,12-13,15-17H2,1-4H3,(H,33,39)(H,34,40)(H,35,41)/b11-10+/t21-,22+,24?,28-/m0/s1

> <PUBCHEM_IUPAC_INCHIKEY>
CAYJBRBGZBCZKO-UYNHSHTQSA-N

> <PUBCHEM_XLOGP3_AA>
3.1

> <PUBCHEM_EXACT_MASS>
598.280278

> <PUBCHEM_MOLECULAR_FORMULA>
C31H39FN4O7

> <PUBCHEM_MOLECULAR_WEIGHT>
598.7

> <PUBCHEM_OPENEYE_CAN_SMILES>
CCOC(=O)C=CC(CC1CCNC1=O)NC(=O)C(CC2=CC=C(C=C2)F)CC(=O)C(C(C)C)NC(=O)C3=NOC(=C3)C

> <PUBCHEM_OPENEYE_ISO_SMILES>
CCOC(=O)/C=C/C(C[C@@H]1CCNC1=O)NC(=O)[C@H](CC2=CC=C(C=C2)F)CC(=O)[C@H](C(C)C)NC(=O)C3=NOC(=C3)C

> <PUBCHEM_CACTVS_TPSA>
157

> <PUBCHEM_MONOISOTOPIC_WEIGHT>
598.280278

> <PUBCHEM_TOTAL_CHARGE>
0

> <PUBCHEM_HEAVY_ATOM_COUNT>
43

> <PUBCHEM_ATOM_DEF_STEREO_COUNT>
3

> <PUBCHEM_ATOM_UDEF_STEREO_COUNT>
1

> <PUBCHEM_BOND_DEF_STEREO_COUNT>
1

> <PUBCHEM_BOND_UDEF_STEREO_COUNT>
0

> <PUBCHEM_ISOTOPIC_ATOM_COUNT>
0

> <PUBCHEM_COMPONENT_COUNT>
1

> <PUBCHEM_CACTVS_TAUTO_COUNT>
-1

> <PUBCHEM_COORDINATE_TYPE>
1
5
255

> <PUBCHEM_BONDANNOTATIONS>
22  11  5
12  37  8
13  14  6
16  14  3
19  20  5
27  31  8
27  32  8
31  35  8
32  36  8
35  38  8
36  38  8
37  39  8
39  40  8
8  12  8
8  40  8

$$$$
140818698
  -OEChem-02212016592D

 49 51  0     1  0  0  0  0  0999 V2000
    6.1571    7.0466    0.0000 O   0  0  0  0  0  0  0  0  0  0  0  0
    7.5464    2.6968    0.0000 O   0  0  0  0  0  0  0  0  0  0  0  0
    4.6551    1.0412    0.0000 O   0  0  0  0  0  0  0  0  0  0  0  0
    3.7320   -3.5466    0.0000 O   0  0  0  0  0  0  0  0  0  0  0  0
    4.5981   -1.0466    0.0000 O   0  0  0  0  0  0  0  0  0  0  0  0
    6.3301   -1.0466    0.0000 O   0  0  0  0  0  0  0  0  0  0  0  0
    6.1452    3.7148    0.0000 N   0  0  0  0  0  0  0  0  0  0  0  0
    4.9641    1.9923    0.0000 N   0  0  0  0  0  0  0  0  0  0  0  0
    6.3262    5.4374    0.0000 C   0  0  3  0  0  0  0  0  0  0  0  0
    5.3480    5.6453    0.0000 C   0  0  0  0  0  0  0  0  0  0  0  0
    6.8262    6.3034    0.0000 C   0  0  0  0  0  0  0  0  0  0  0  0
    5.2435    6.6398    0.0000 C   0  0  0  0  0  0  0  0  0  0  0  0
    6.7329    4.5239    0.0000 C   0  0  0  0  0  0  0  0  0  0  0  0
    6.5519    2.8013    0.0000 C   0  0  0  0  0  0  0  0  0  0  0  0
    5.9641    1.9923    0.0000 C   0  0  0  0  0  0  0  0  0  0  0  0
    6.2731    1.0412    0.0000 C   0  0  0  0  0  0  0  0  0  0  0  0
    5.4641    0.4534    0.0000 C   0  0  0  0  0  0  0  0  0  0  0  0
    2.8660   -4.0466    0.0000 C   0  0  0  0  0  0  0  0  0  0  0  0
    3.7320   -2.5466    0.0000 C   0  0  0  0  0  0  0  0  0  0  0  0
    4.5981   -2.0466    0.0000 C   0  0  0  0  0  0  0  0  0  0  0  0
    2.8660   -5.0466    0.0000 C   0  0  0  0  0  0  0  0  0  0  0  0
    5.4641   -0.5466    0.0000 C   0  0  0  0  0  0  0  0  0  0  0  0
    3.7320   -5.5466    0.0000 C   0  0  0  0  0  0  0  0  0  0  0  0
    2.0000   -5.5466    0.0000 C   0  0  0  0  0  0  0  0  0  0  0  0
    3.7320   -6.5466    0.0000 C   0  0  0  0  0  0  0  0  0  0  0  0
    2.0000   -6.5466    0.0000 C   0  0  0  0  0  0  0  0  0  0  0  0
    2.8660   -7.0466    0.0000 C   0  0  0  0  0  0  0  0  0  0  0  0
    6.9454    5.4050    0.0000 H   0  0  0  0  0  0  0  0  0  0  0  0
    4.7280    5.6453    0.0000 H   0  0  0  0  0  0  0  0  0  0  0  0
    5.2832    5.0287    0.0000 H   0  0  0  0  0  0  0  0  0  0  0  0
    7.3278    5.9390    0.0000 H   0  0  0  0  0  0  0  0  0  0  0  0
    7.2411    6.7642    0.0000 H   0  0  0  0  0  0  0  0  0  0  0  0
    7.1636    4.0779    0.0000 H   0  0  0  0  0  0  0  0  0  0  0  0
    7.2469    4.8706    0.0000 H   0  0  0  0  0  0  0  0  0  0  0  0
    5.0519    7.2295    0.0000 H   0  0  0  0  0  0  0  0  0  0  0  0
    4.6371    6.5109    0.0000 H   0  0  0  0  0  0  0  0  0  0  0  0
    5.5286    3.7796    0.0000 H   0  0  0  0  0  0  0  0  0  0  0  0
    6.8628    0.8496    0.0000 H   0  0  0  0  0  0  0  0  0  0  0  0
    2.6540   -3.4640    0.0000 H   0  0  0  0  0  0  0  0  0  0  0  0
    2.2554   -4.1542    0.0000 H   0  0  0  0  0  0  0  0  0  0  0  0
    3.5200   -1.9640    0.0000 H   0  0  0  0  0  0  0  0  0  0  0  0
    3.1215   -2.6542    0.0000 H   0  0  0  0  0  0  0  0  0  0  0  0
    4.8101   -2.6292    0.0000 H   0  0  0  0  0  0  0  0  0  0  0  0
    5.2087   -1.9389    0.0000 H   0  0  0  0  0  0  0  0  0  0  0  0
    4.2690   -5.2366    0.0000 H   0  0  0  0  0  0  0  0  0  0  0  0
    1.4631   -5.2366    0.0000 H   0  0  0  0  0  0  0  0  0  0  0  0
    4.2690   -6.8566    0.0000 H   0  0  0  0  0  0  0  0  0  0  0  0
    1.4631   -6.8566    0.0000 H   0  0  0  0  0  0  0  0  0  0  0  0
    2.8660   -7.6666    0.0000 H   0  0  0  0  0  0  0  0  0  0  0  0
  1 11  1  0  0  0  0
  1 12  1  0  0  0  0
  2 14  2  0  0  0  0
  3  8  1  0  0  0  0
  3 17  1  0  0  0  0
  4 18  1  0  0  0  0
  4 19  1  0  0  0  0
  5 20  1  0  0  0  0
  5 22  1  0  0  0  0
  6 22  2  0  0  0  0
  7 13  1  0  0  0  0
  7 14  1  0  0  0  0
  7 37  1  0  0  0  0
  8 15  2  0  0  0  0
  9 10  1  0  0  0  0
  9 11  1  0  0  0  0
  9 13  1  0  0  0  0
  9 28  1  0  0  0  0
 10 12  1  0  0  0  0
 10 29  1  0  0  0  0
 10 30  1  0  0  0  0
 11 31  1  0  0  0  0
 11 32  1  0  0  0  0
 12 35  1  0  0  0  0
 12 36  1  0  0  0  0
 13 33  1  0  0  0  0
 13 34  1  0  0  0  0
 14 15  1  0  0  0  0
 15 16  1  0  0  0  0
 16 17  2  0  0  0  0
 16 38  1  0  0  0  0
 17 22  1  0  0  0  0
 18 21  1  0  0  0  0
 18 39  1  0  0  0  0
 18 40  1  0  0  0  0
 19 20  1  0  0  0  0
 19 41  1  0  0  0  0
 19 42  1  0  0  0  0
 20 43  1  0  0  0  0
 20 44  1  0  0  0  0
 21 23  2  0  0  0  0
 21 24  1  0  0  0  0
 23 25  1  0  0  0  0
 23 45  1  0  0  0  0
 24 26  2  0  0  0  0
 24 46  1  0  0  0  0
 25 27  2  0  0  0  0
 25 47  1  0  0  0  0
 26 27  1  0  0  0  0
 26 48  1  0  0  0  0
 27 49  1  0  0  0  0
M  END
> <PUBCHEM_COMPOUND_CID>
140818698

> <PUBCHEM_COMPOUND_CANONICALIZED>
1

> <PUBCHEM_CACTVS_COMPLEXITY>
483

> <PUBCHEM_CACTVS_HBOND_ACCEPTOR>
7

> <PUBCHEM_CACTVS_HBOND_DONOR>
1

> <PUBCHEM_CACTVS_ROTATABLE_BOND>
10

> <PUBCHEM_CACTVS_SUBSKEYS>
AAADceB7OAAAAAAAAAAAAAAAAAAAAWJAAAAwAAAAAAAAAAABwAAAHgAUAAAADQzhngYwjJLQBACpA6XyWgKCAAAmIgAomKH+bNoJZjqAtZ+WMYhm1hmK6ce/1yIOAAAAAAAAAAAAAAAAAAAAAAAAAAAAAA==

> <PUBCHEM_IUPAC_OPENEYE_NAME>
2-benzyloxyethyl 3-(tetrahydrofuran-3-ylmethylcarbamoyl)isoxazole-5-carboxylate

> <PUBCHEM_IUPAC_CAS_NAME>
3-[oxo-(3-oxolanylmethylamino)methyl]-5-isoxazolecarboxylic acid 2-phenylmethoxyethyl ester

> <PUBCHEM_IUPAC_NAME_MARKUP>
2-phenylmethoxyethyl 3-(oxolan-3-ylmethylcarbamoyl)-1,2-oxazole-5-carboxylate

> <PUBCHEM_IUPAC_NAME>
2-phenylmethoxyethyl 3-(oxolan-3-ylmethylcarbamoyl)-1,2-oxazole-5-carboxylate

> <PUBCHEM_IUPAC_SYSTEMATIC_NAME>
2-phenylmethoxyethyl 3-(oxolan-3-ylmethylcarbamoyl)-1,2-oxazole-5-carboxylate

> <PUBCHEM_IUPAC_TRADITIONAL_NAME>
3-(tetrahydrofuran-3-ylmethylcarbamoyl)isoxazole-5-carboxylic acid 2-benzoxyethyl ester

> <PUBCHEM_IUPAC_INCHI>
InChI=1S/C19H22N2O6/c22-18(20-11-15-6-7-24-13-15)16-10-17(27-21-16)19(23)26-9-8-25-12-14-4-2-1-3-5-14/h1-5,10,15H,6-9,11-13H2,(H,20,22)

> <PUBCHEM_IUPAC_INCHIKEY>
CDASQXPRFVVNSF-UHFFFAOYSA-N

> <PUBCHEM_XLOGP3_AA>
1.8

> <PUBCHEM_EXACT_MASS>
374.147786

> <PUBCHEM_MOLECULAR_FORMULA>
C19H22N2O6

> <PUBCHEM_MOLECULAR_WEIGHT>
374.4

> <PUBCHEM_OPENEYE_CAN_SMILES>
C1COCC1CNC(=O)C2=NOC(=C2)C(=O)OCCOCC3=CC=CC=C3

> <PUBCHEM_OPENEYE_ISO_SMILES>
C1COCC1CNC(=O)C2=NOC(=C2)C(=O)OCCOCC3=CC=CC=C3

> <PUBCHEM_CACTVS_TPSA>
99.9

> <PUBCHEM_MONOISOTOPIC_WEIGHT>
374.147786

> <PUBCHEM_TOTAL_CHARGE>
0

> <PUBCHEM_HEAVY_ATOM_COUNT>
27

> <PUBCHEM_ATOM_DEF_STEREO_COUNT>
0

> <PUBCHEM_ATOM_UDEF_STEREO_COUNT>
1

> <PUBCHEM_BOND_DEF_STEREO_COUNT>
0

> <PUBCHEM_BOND_UDEF_STEREO_COUNT>
0

> <PUBCHEM_ISOTOPIC_ATOM_COUNT>
0

> <PUBCHEM_COMPONENT_COUNT>
1

> <PUBCHEM_CACTVS_TAUTO_COUNT>
-1

> <PUBCHEM_COORDINATE_TYPE>
1
5
255

> <PUBCHEM_BONDANNOTATIONS>
15  16  8
16  17  8
21  23  8
21  24  8
23  25  8
24  26  8
25  27  8
26  27  8
3  17  8
3  8  8
8  15  8
9  13  3

$$$$
140818704
  -OEChem-02212016592D

 46 48  0     1  0  0  0  0  0999 V2000
    5.2910    6.2966    0.0000 O   0  0  0  0  0  0  0  0  0  0  0  0
    3.7891    0.2912    0.0000 O   0  0  0  0  0  0  0  0  0  0  0  0
    6.6804    1.9468    0.0000 O   0  0  0  0  0  0  0  0  0  0  0  0
    3.7320   -2.7966    0.0000 O   0  0  0  0  0  0  0  0  0  0  0  0
    5.2791    2.9648    0.0000 N   0  0  0  0  0  0  0  0  0  0  0  0
    4.0981    1.2423    0.0000 N   0  0  0  0  0  0  0  0  0  0  0  0
    5.4602    4.6874    0.0000 C   0  0  3  0  0  0  0  0  0  0  0  0
    4.4820    4.8953    0.0000 C   0  0  0  0  0  0  0  0  0  0  0  0
    5.9602    5.5534    0.0000 C   0  0  0  0  0  0  0  0  0  0  0  0
    5.8669    3.7738    0.0000 C   0  0  0  0  0  0  0  0  0  0  0  0
    4.3775    5.8898    0.0000 C   0  0  0  0  0  0  0  0  0  0  0  0
    5.6859    2.0513    0.0000 C   0  0  0  0  0  0  0  0  0  0  0  0
    5.0981    1.2423    0.0000 C   0  0  0  0  0  0  0  0  0  0  0  0
    4.5981   -1.2966    0.0000 C   0  0  0  0  0  0  0  0  0  0  0  0
    4.5981   -0.2966    0.0000 C   0  0  0  0  0  0  0  0  0  0  0  0
    5.4071    0.2912    0.0000 C   0  0  0  0  0  0  0  0  0  0  0  0
    3.7320   -1.7966    0.0000 C   0  0  0  0  0  0  0  0  0  0  0  0
    2.8660   -3.2966    0.0000 C   0  0  0  0  0  0  0  0  0  0  0  0
    2.8660   -4.2966    0.0000 C   0  0  0  0  0  0  0  0  0  0  0  0
    3.7320   -4.7966    0.0000 C   0  0  0  0  0  0  0  0  0  0  0  0
    2.0000   -4.7966    0.0000 C   0  0  0  0  0  0  0  0  0  0  0  0
    3.7320   -5.7966    0.0000 C   0  0  0  0  0  0  0  0  0  0  0  0
    2.0000   -5.7966    0.0000 C   0  0  0  0  0  0  0  0  0  0  0  0
    2.8660   -6.2966    0.0000 C   0  0  0  0  0  0  0  0  0  0  0  0
    6.0793    4.6550    0.0000 H   0  0  0  0  0  0  0  0  0  0  0  0
    3.8620    4.8953    0.0000 H   0  0  0  0  0  0  0  0  0  0  0  0
    4.4172    4.2787    0.0000 H   0  0  0  0  0  0  0  0  0  0  0  0
    6.4618    5.1890    0.0000 H   0  0  0  0  0  0  0  0  0  0  0  0
    6.3750    6.0142    0.0000 H   0  0  0  0  0  0  0  0  0  0  0  0
    6.2976    3.3279    0.0000 H   0  0  0  0  0  0  0  0  0  0  0  0
    6.3809    4.1206    0.0000 H   0  0  0  0  0  0  0  0  0  0  0  0
    4.1859    6.4795    0.0000 H   0  0  0  0  0  0  0  0  0  0  0  0
    3.7710    5.7609    0.0000 H   0  0  0  0  0  0  0  0  0  0  0  0
    4.6625    3.0296    0.0000 H   0  0  0  0  0  0  0  0  0  0  0  0
    4.8101   -1.8792    0.0000 H   0  0  0  0  0  0  0  0  0  0  0  0
    5.2087   -1.1889    0.0000 H   0  0  0  0  0  0  0  0  0  0  0  0
    5.9967    0.0996    0.0000 H   0  0  0  0  0  0  0  0  0  0  0  0
    3.5200   -1.2140    0.0000 H   0  0  0  0  0  0  0  0  0  0  0  0
    3.1215   -1.9042    0.0000 H   0  0  0  0  0  0  0  0  0  0  0  0
    2.6540   -2.7140    0.0000 H   0  0  0  0  0  0  0  0  0  0  0  0
    2.2554   -3.4042    0.0000 H   0  0  0  0  0  0  0  0  0  0  0  0
    4.2690   -4.4866    0.0000 H   0  0  0  0  0  0  0  0  0  0  0  0
    1.4631   -4.4866    0.0000 H   0  0  0  0  0  0  0  0  0  0  0  0
    4.2690   -6.1066    0.0000 H   0  0  0  0  0  0  0  0  0  0  0  0
    1.4631   -6.1066    0.0000 H   0  0  0  0  0  0  0  0  0  0  0  0
    2.8660   -6.9166    0.0000 H   0  0  0  0  0  0  0  0  0  0  0  0
  1  9  1  0  0  0  0
  1 11  1  0  0  0  0
  2  6  1  0  0  0  0
  2 15  1  0  0  0  0
  3 12  2  0  0  0  0
  4 17  1  0  0  0  0
  4 18  1  0  0  0  0
  5 10  1  0  0  0  0
  5 12  1  0  0  0  0
  5 34  1  0  0  0  0
  6 13  2  0  0  0  0
  7  8  1  0  0  0  0
  7  9  1  0  0  0  0
  7 10  1  0  0  0  0
  7 25  1  0  0  0  0
  8 11  1  0  0  0  0
  8 26  1  0  0  0  0
  8 27  1  0  0  0  0
  9 28  1  0  0  0  0
  9 29  1  0  0  0  0
 10 30  1  0  0  0  0
 10 31  1  0  0  0  0
 11 32  1  0  0  0  0
 11 33  1  0  0  0  0
 12 13  1  0  0  0  0
 13 16  1  0  0  0  0
 14 15  1  0  0  0  0
 14 17  1  0  0  0  0
 14 35  1  0  0  0  0
 14 36  1  0  0  0  0
 15 16  2  0  0  0  0
 16 37  1  0  0  0  0
 17 38  1  0  0  0  0
 17 39  1  0  0  0  0
 18 19  1  0  0  0  0
 18 40  1  0  0  0  0
 18 41  1  0  0  0  0
 19 20  2  0  0  0  0
 19 21  1  0  0  0  0
 20 22  1  0  0  0  0
 20 42  1  0  0  0  0
 21 23  2  0  0  0  0
 21 43  1  0  0  0  0
 22 24  2  0  0  0  0
 22 44  1  0  0  0  0
 23 24  1  0  0  0  0
 23 45  1  0  0  0  0
 24 46  1  0  0  0  0
M  END
> <PUBCHEM_COMPOUND_CID>
140818704

> <PUBCHEM_COMPOUND_CANONICALIZED>
1

> <PUBCHEM_CACTVS_COMPLEXITY>
387

> <PUBCHEM_CACTVS_HBOND_ACCEPTOR>
5

> <PUBCHEM_CACTVS_HBOND_DONOR>
1

> <PUBCHEM_CACTVS_ROTATABLE_BOND>
8

> <PUBCHEM_CACTVS_SUBSKEYS>
AAADceB7OAAAAAAAAAAAAAAAAAAAAWJAAAAwAAAAAAAAAAABwAAAHgAUAAAADQzhngYwhJLQBACpA6VyUgCCAAAmIgAomKG+bNoIZj6AtZuWMYhn9hmI6ce/2CEOAAAAAAAAAAAAAAAAAAAAAAAAAAAAAA==

> <PUBCHEM_IUPAC_OPENEYE_NAME>
5-(2-benzyloxyethyl)-N-(tetrahydrofuran-3-ylmethyl)isoxazole-3-carboxamide

> <PUBCHEM_IUPAC_CAS_NAME>
N-(3-oxolanylmethyl)-5-(2-phenylmethoxyethyl)-3-isoxazolecarboxamide

> <PUBCHEM_IUPAC_NAME_MARKUP>
<I>N</I>-(oxolan-3-ylmethyl)-5-(2-phenylmethoxyethyl)-1,2-oxazole-3-carboxamide

> <PUBCHEM_IUPAC_NAME>
N-(oxolan-3-ylmethyl)-5-(2-phenylmethoxyethyl)-1,2-oxazole-3-carboxamide

> <PUBCHEM_IUPAC_SYSTEMATIC_NAME>
N-(oxolan-3-ylmethyl)-5-(2-phenylmethoxyethyl)-1,2-oxazole-3-carboxamide

> <PUBCHEM_IUPAC_TRADITIONAL_NAME>
5-(2-benzoxyethyl)-N-(tetrahydrofuran-3-ylmethyl)isoxazole-3-carboxamide

> <PUBCHEM_IUPAC_INCHI>
InChI=1S/C18H22N2O4/c21-18(19-11-15-6-8-22-13-15)17-10-16(24-20-17)7-9-23-12-14-4-2-1-3-5-14/h1-5,10,15H,6-9,11-13H2,(H,19,21)

> <PUBCHEM_IUPAC_INCHIKEY>
AQKULHCBJIDYGZ-UHFFFAOYSA-N

> <PUBCHEM_XLOGP3_AA>
1.9

> <PUBCHEM_EXACT_MASS>
330.157957

> <PUBCHEM_MOLECULAR_FORMULA>
C18H22N2O4

> <PUBCHEM_MOLECULAR_WEIGHT>
330.4

> <PUBCHEM_OPENEYE_CAN_SMILES>
C1COCC1CNC(=O)C2=NOC(=C2)CCOCC3=CC=CC=C3

> <PUBCHEM_OPENEYE_ISO_SMILES>
C1COCC1CNC(=O)C2=NOC(=C2)CCOCC3=CC=CC=C3

> <PUBCHEM_CACTVS_TPSA>
73.6

> <PUBCHEM_MONOISOTOPIC_WEIGHT>
330.157957

> <PUBCHEM_TOTAL_CHARGE>
0

> <PUBCHEM_HEAVY_ATOM_COUNT>
24

> <PUBCHEM_ATOM_DEF_STEREO_COUNT>
0

> <PUBCHEM_ATOM_UDEF_STEREO_COUNT>
1

> <PUBCHEM_BOND_DEF_STEREO_COUNT>
0

> <PUBCHEM_BOND_UDEF_STEREO_COUNT>
0

> <PUBCHEM_ISOTOPIC_ATOM_COUNT>
0

> <PUBCHEM_COMPONENT_COUNT>
1

> <PUBCHEM_CACTVS_TAUTO_COUNT>
-1

> <PUBCHEM_COORDINATE_TYPE>
1
5
255

> <PUBCHEM_BONDANNOTATIONS>
13  16  8
15  16  8
19  20  8
19  21  8
2  15  8
2  6  8
20  22  8
21  23  8
22  24  8
23  24  8
6  13  8
7  10  3

$$$$
141970631
  -OEChem-02212016592D

 81 83  0     1  0  0  0  0  0999 V2000
    8.2839   -5.6739    0.0000 F   0  0  0  0  0  0  0  0  0  0  0  0
    9.5627   -4.4340    0.0000 O   0  0  0  0  0  0  0  0  0  0  0  0
    4.8198   -2.6739    0.0000 O   0  0  0  0  0  0  0  0  0  0  0  0
    5.6859    0.8261    0.0000 O   0  0  0  0  0  0  0  0  0  0  0  0
    9.1500    0.8261    0.0000 O   0  0  0  0  0  0  0  0  0  0  0  0
    7.4179    0.8261    0.0000 O   0  0  0  0  0  0  0  0  0  0  0  0
    2.2218    1.8261    0.0000 O   0  0  0  0  0  0  0  0  0  0  0  0
    3.5878    4.8649    0.0000 O   0  0  0  0  0  0  0  0  0  0  0  0
   10.8228   -3.1739    0.0000 N   0  0  0  0  0  0  0  0  0  0  0  0
    6.5519   -2.6739    0.0000 N   0  0  0  0  0  0  0  0  0  0  0  0
    4.8198   -0.6739    0.0000 N   0  0  0  0  0  0  0  0  0  0  0  0
    3.9538    1.8261    0.0000 N   0  0  0  0  0  0  0  0  0  0  0  0
    3.8968    3.9139    0.0000 N   0  0  0  0  0  0  0  0  0  0  0  0
    9.2839   -2.6739    0.0000 C   0  0  2  0  0  0  0  0  0  0  0  0
    8.2839   -2.6739    0.0000 C   0  0  0  0  0  0  0  0  0  0  0  0
    9.8717   -1.8649    0.0000 C   0  0  0  0  0  0  0  0  0  0  0  0
    7.4179   -2.1739    0.0000 C   0  0  3  0  0  0  0  0  0  0  0  0
   10.8228   -2.1739    0.0000 C   0  0  0  0  0  0  0  0  0  0  0  0
    9.8717   -3.4830    0.0000 C   0  0  0  0  0  0  0  0  0  0  0  0
    7.4179   -1.1739    0.0000 C   0  0  0  0  0  0  0  0  0  0  0  0
    6.5519   -3.6739    0.0000 C   0  0  0  0  0  0  0  0  0  0  0  0
    5.6859   -2.1739    0.0000 C   0  0  0  0  0  0  0  0  0  0  0  0
    5.6859   -1.1739    0.0000 C   0  0  0  0  0  0  0  0  0  0  0  0
    5.6859   -4.1739    0.0000 C   0  0  0  0  0  0  0  0  0  0  0  0
    8.2839   -0.6739    0.0000 C   0  0  0  0  0  0  0  0  0  0  0  0
    3.9538    0.8261    0.0000 C   0  0  1  0  0  0  0  0  0  0  0  0
    7.4179   -4.1739    0.0000 C   0  0  0  0  0  0  0  0  0  0  0  0
    3.0878    0.3261    0.0000 C   0  0  0  0  0  0  0  0  0  0  0  0
    4.8198    0.3261    0.0000 C   0  0  0  0  0  0  0  0  0  0  0  0
    5.6859   -5.1739    0.0000 C   0  0  0  0  0  0  0  0  0  0  0  0
    4.8198   -3.6739    0.0000 C   0  0  0  0  0  0  0  0  0  0  0  0
    7.4179   -5.1739    0.0000 C   0  0  0  0  0  0  0  0  0  0  0  0
    2.2218    0.8261    0.0000 C   0  0  0  0  0  0  0  0  0  0  0  0
    3.0878   -0.6739    0.0000 C   0  0  0  0  0  0  0  0  0  0  0  0
    6.5519   -5.6739    0.0000 C   0  0  0  0  0  0  0  0  0  0  0  0
    8.2839    0.3261    0.0000 C   0  0  0  0  0  0  0  0  0  0  0  0
    3.0878    2.3261    0.0000 C   0  0  0  0  0  0  0  0  0  0  0  0
    3.0878    3.3261    0.0000 C   0  0  0  0  0  0  0  0  0  0  0  0
    9.1500    1.8261    0.0000 C   0  0  0  0  0  0  0  0  0  0  0  0
    2.2788    3.9139    0.0000 C   0  0  0  0  0  0  0  0  0  0  0  0
   10.0160    2.3261    0.0000 C   0  0  0  0  0  0  0  0  0  0  0  0
    2.5878    4.8649    0.0000 C   0  0  0  0  0  0  0  0  0  0  0  0
    2.0000    5.6739    0.0000 C   0  0  0  0  0  0  0  0  0  0  0  0
    9.0025   -3.2264    0.0000 H   0  0  0  0  0  0  0  0  0  0  0  0
    7.8090   -3.0725    0.0000 H   0  0  0  0  0  0  0  0  0  0  0  0
    8.4444   -2.0751    0.0000 H   0  0  0  0  0  0  0  0  0  0  0  0
   10.1239   -1.2985    0.0000 H   0  0  0  0  0  0  0  0  0  0  0  0
    9.3348   -1.5549    0.0000 H   0  0  0  0  0  0  0  0  0  0  0  0
    6.8810   -1.8639    0.0000 H   0  0  0  0  0  0  0  0  0  0  0  0
   11.4394   -2.2387    0.0000 H   0  0  0  0  0  0  0  0  0  0  0  0
   10.9517   -1.5675    0.0000 H   0  0  0  0  0  0  0  0  0  0  0  0
   11.3244   -3.5384    0.0000 H   0  0  0  0  0  0  0  0  0  0  0  0
    6.8810   -0.8639    0.0000 H   0  0  0  0  0  0  0  0  0  0  0  0
    6.2964   -1.2816    0.0000 H   0  0  0  0  0  0  0  0  0  0  0  0
    5.8979   -0.5913    0.0000 H   0  0  0  0  0  0  0  0  0  0  0  0
    8.8209   -0.9839    0.0000 H   0  0  0  0  0  0  0  0  0  0  0  0
    4.4908    1.1361    0.0000 H   0  0  0  0  0  0  0  0  0  0  0  0
    7.9548   -3.8639    0.0000 H   0  0  0  0  0  0  0  0  0  0  0  0
    3.0878    0.9461    0.0000 H   0  0  0  0  0  0  0  0  0  0  0  0
    4.2829   -0.9839    0.0000 H   0  0  0  0  0  0  0  0  0  0  0  0
    5.1489   -5.4839    0.0000 H   0  0  0  0  0  0  0  0  0  0  0  0
    5.1298   -3.1370    0.0000 H   0  0  0  0  0  0  0  0  0  0  0  0
    4.2829   -3.3639    0.0000 H   0  0  0  0  0  0  0  0  0  0  0  0
    4.5098   -4.2109    0.0000 H   0  0  0  0  0  0  0  0  0  0  0  0
    2.5318    1.3630    0.0000 H   0  0  0  0  0  0  0  0  0  0  0  0
    1.6848    1.1361    0.0000 H   0  0  0  0  0  0  0  0  0  0  0  0
    1.9118    0.2891    0.0000 H   0  0  0  0  0  0  0  0  0  0  0  0
    2.4678   -0.6739    0.0000 H   0  0  0  0  0  0  0  0  0  0  0  0
    3.0878   -1.2939    0.0000 H   0  0  0  0  0  0  0  0  0  0  0  0
    3.7078   -0.6739    0.0000 H   0  0  0  0  0  0  0  0  0  0  0  0
    4.4908    2.1361    0.0000 H   0  0  0  0  0  0  0  0  0  0  0  0
    6.5519   -6.2939    0.0000 H   0  0  0  0  0  0  0  0  0  0  0  0
    8.9379    2.4087    0.0000 H   0  0  0  0  0  0  0  0  0  0  0  0
    8.5394    1.7184    0.0000 H   0  0  0  0  0  0  0  0  0  0  0  0
    1.6891    3.7223    0.0000 H   0  0  0  0  0  0  0  0  0  0  0  0
   10.3260    1.7891    0.0000 H   0  0  0  0  0  0  0  0  0  0  0  0
   10.5529    2.6361    0.0000 H   0  0  0  0  0  0  0  0  0  0  0  0
    9.7060    2.8630    0.0000 H   0  0  0  0  0  0  0  0  0  0  0  0
    2.5016    6.0384    0.0000 H   0  0  0  0  0  0  0  0  0  0  0  0
    1.6356    6.1755    0.0000 H   0  0  0  0  0  0  0  0  0  0  0  0
    1.4984    5.3095    0.0000 H   0  0  0  0  0  0  0  0  0  0  0  0
  1 32  1  0  0  0  0
  2 19  2  0  0  0  0
  3 22  2  0  0  0  0
  4 29  2  0  0  0  0
  5 36  1  0  0  0  0
  5 39  1  0  0  0  0
  6 36  2  0  0  0  0
  7 37  2  0  0  0  0
  8 13  1  0  0  0  0
  8 42  1  0  0  0  0
  9 18  1  0  0  0  0
  9 19  1  0  0  0  0
  9 52  1  0  0  0  0
 10 17  1  0  0  0  0
 10 21  1  0  0  0  0
 10 22  1  0  0  0  0
 11 23  1  0  0  0  0
 11 29  1  0  0  0  0
 11 60  1  0  0  0  0
 26 12  1  6  0  0  0
 12 37  1  0  0  0  0
 12 71  1  0  0  0  0
 13 38  2  0  0  0  0
 14 15  1  6  0  0  0
 14 16  1  0  0  0  0
 14 19  1  0  0  0  0
 14 44  1  0  0  0  0
 15 17  1  0  0  0  0
 15 45  1  0  0  0  0
 15 46  1  0  0  0  0
 16 18  1  0  0  0  0
 16 47  1  0  0  0  0
 16 48  1  0  0  0  0
 17 20  1  0  0  0  0
 17 49  1  0  0  0  0
 18 50  1  0  0  0  0
 18 51  1  0  0  0  0
 20 25  2  0  0  0  0
 20 53  1  0  0  0  0
 21 24  2  0  0  0  0
 21 27  1  0  0  0  0
 22 23  1  0  0  0  0
 23 54  1  0  0  0  0
 23 55  1  0  0  0  0
 24 30  1  0  0  0  0
 24 31  1  0  0  0  0
 25 36  1  0  0  0  0
 25 56  1  0  0  0  0
 26 28  1  0  0  0  0
 26 29  1  0  0  0  0
 26 57  1  0  0  0  0
 27 32  2  0  0  0  0
 27 58  1  0  0  0  0
 28 33  1  0  0  0  0
 28 34  1  0  0  0  0
 28 59  1  0  0  0  0
 30 35  2  0  0  0  0
 30 61  1  0  0  0  0
 31 62  1  0  0  0  0
 31 63  1  0  0  0  0
 31 64  1  0  0  0  0
 32 35  1  0  0  0  0
 33 65  1  0  0  0  0
 33 66  1  0  0  0  0
 33 67  1  0  0  0  0
 34 68  1  0  0  0  0
 34 69  1  0  0  0  0
 34 70  1  0  0  0  0
 35 72  1  0  0  0  0
 37 38  1  0  0  0  0
 38 40  1  0  0  0  0
 39 41  1  0  0  0  0
 39 73  1  0  0  0  0
 39 74  1  0  0  0  0
 40 42  2  0  0  0  0
 40 75  1  0  0  0  0
 41 76  1  0  0  0  0
 41 77  1  0  0  0  0
 41 78  1  0  0  0  0
 42 43  1  0  0  0  0
 43 79  1  0  0  0  0
 43 80  1  0  0  0  0
 43 81  1  0  0  0  0
M  END
> <PUBCHEM_COMPOUND_CID>
141970631

> <PUBCHEM_COMPOUND_CANONICALIZED>
1

> <PUBCHEM_CACTVS_COMPLEXITY>
1040

> <PUBCHEM_CACTVS_HBOND_ACCEPTOR>
9

> <PUBCHEM_CACTVS_HBOND_DONOR>
3

> <PUBCHEM_CACTVS_ROTATABLE_BOND>
14

> <PUBCHEM_CACTVS_SUBSKEYS>
AAADcfB7uQAAAAAAAAAAAAAAAAAAAWLAAAAwAAAAAAAAAAABwAAAHwAUAAAADSzhng4yzJPQBACpA6XyWgCCAAAnIgAomKG+bNoIZjrAtbOWMYhmlhjI6cc/gAAOAAAAAAACAAAAAAAAAAQAAAAAAAAAAA==

> <PUBCHEM_IUPAC_OPENEYE_NAME>
ethyl (E)-4-(5-fluoro-2-methyl-N-[2-[[(2S)-3-methyl-2-[(5-methylisoxazole-3-carbonyl)amino]butanoyl]amino]acetyl]anilino)-5-[(3S)-2-oxopyrrolidin-3-yl]pent-2-enoate

> <PUBCHEM_IUPAC_CAS_NAME>
(E)-4-(5-fluoro-2-methyl-N-[2-[[(2S)-3-methyl-2-[[(5-methyl-3-isoxazolyl)-oxomethyl]amino]-1-oxobutyl]amino]-1-oxoethyl]anilino)-5-[(3S)-2-oxo-3-pyrrolidinyl]-2-pentenoic acid ethyl ester

> <PUBCHEM_IUPAC_NAME_MARKUP>
ethyl (<I>E</I>)-4-(5-fluoro-2-methyl-<I>N</I>-[2-[[(2<I>S</I>)-3-methyl-2-[(5-methyl-1,2-oxazole-3-carbonyl)amino]butanoyl]amino]acetyl]anilino)-5-[(3<I>S</I>)-2-oxopyrrolidin-3-yl]pent-2-enoate

> <PUBCHEM_IUPAC_NAME>
ethyl (E)-4-(5-fluoro-2-methyl-N-[2-[[(2S)-3-methyl-2-[(5-methyl-1,2-oxazole-3-carbonyl)amino]butanoyl]amino]acetyl]anilino)-5-[(3S)-2-oxopyrrolidin-3-yl]pent-2-enoate

> <PUBCHEM_IUPAC_SYSTEMATIC_NAME>
ethyl (E)-4-[(5-fluoranyl-2-methyl-phenyl)-[2-[[(2S)-3-methyl-2-[(5-methyl-1,2-oxazol-3-yl)carbonylamino]butanoyl]amino]ethanoyl]amino]-5-[(3S)-2-oxidanylidenepyrrolidin-3-yl]pent-2-enoate

> <PUBCHEM_IUPAC_TRADITIONAL_NAME>
(E)-4-(5-fluoro-2-methyl-N-[2-[[(2S)-3-methyl-2-[(5-methylisoxazole-3-carbonyl)amino]butanoyl]amino]acetyl]anilino)-5-[(3S)-2-ketopyrrolidin-3-yl]pent-2-enoic acid ethyl ester

> <PUBCHEM_IUPAC_INCHI>
InChI=1S/C30H38FN5O7/c1-6-42-26(38)10-9-22(14-20-11-12-32-28(20)39)36(24-15-21(31)8-7-18(24)4)25(37)16-33-30(41)27(17(2)3)34-29(40)23-13-19(5)43-35-23/h7-10,13,15,17,20,22,27H,6,11-12,14,16H2,1-5H3,(H,32,39)(H,33,41)(H,34,40)/b10-9+/t20-,22?,27-/m0/s1

> <PUBCHEM_IUPAC_INCHIKEY>
GHRSIOMZSHMYKS-HKNAYNCUSA-N

> <PUBCHEM_XLOGP3_AA>
3

> <PUBCHEM_EXACT_MASS>
599.275527

> <PUBCHEM_MOLECULAR_FORMULA>
C30H38FN5O7

> <PUBCHEM_MOLECULAR_WEIGHT>
599.6

> <PUBCHEM_OPENEYE_CAN_SMILES>
CCOC(=O)C=CC(CC1CCNC1=O)N(C2=C(C=CC(=C2)F)C)C(=O)CNC(=O)C(C(C)C)NC(=O)C3=NOC(=C3)C

> <PUBCHEM_OPENEYE_ISO_SMILES>
CCOC(=O)/C=C/C(C[C@@H]1CCNC1=O)N(C2=C(C=CC(=C2)F)C)C(=O)CNC(=O)[C@H](C(C)C)NC(=O)C3=NOC(=C3)C

> <PUBCHEM_CACTVS_TPSA>
160

> <PUBCHEM_MONOISOTOPIC_WEIGHT>
599.275527

> <PUBCHEM_TOTAL_CHARGE>
0

> <PUBCHEM_HEAVY_ATOM_COUNT>
43

> <PUBCHEM_ATOM_DEF_STEREO_COUNT>
2

> <PUBCHEM_ATOM_UDEF_STEREO_COUNT>
1

> <PUBCHEM_BOND_DEF_STEREO_COUNT>
1

> <PUBCHEM_BOND_UDEF_STEREO_COUNT>
0

> <PUBCHEM_ISOTOPIC_ATOM_COUNT>
0

> <PUBCHEM_COMPONENT_COUNT>
1

> <PUBCHEM_CACTVS_TAUTO_COUNT>
-1

> <PUBCHEM_COORDINATE_TYPE>
1
5
255

> <PUBCHEM_BONDANNOTATIONS>
26  12  6
13  38  8
14  15  6
17  15  3
21  24  8
21  27  8
24  30  8
27  32  8
30  35  8
32  35  8
38  40  8
40  42  8
8  13  8
8  42  8

$$$$
141970667
  -OEChem-02212016592D

 81 84  0     1  0  0  0  0  0999 V2000
    4.5981   -6.1739    0.0000 F   0  0  0  0  0  0  0  0  0  0  0  0
   10.0497   -0.0588    0.0000 O   0  0  0  0  0  0  0  0  0  0  0  0
    9.4282   -3.2128    0.0000 O   0  0  0  0  0  0  0  0  0  0  0  0
    6.3301    0.8261    0.0000 O   0  0  0  0  0  0  0  0  0  0  0  0
    5.4641    1.3261    0.0000 O   0  0  0  0  0  0  0  0  0  0  0  0
   10.6883   -1.9527    0.0000 O   0  0  0  0  0  0  0  0  0  0  0  0
    2.0000    2.3261    0.0000 O   0  0  0  0  0  0  0  0  0  0  0  0
    2.3660    5.3649    0.0000 O   0  0  0  0  0  0  0  0  0  0  0  0
   10.5109    1.6625    0.0000 N   0  0  0  0  0  0  0  0  0  0  0  0
    7.1962   -0.6739    0.0000 N   0  0  0  0  0  0  0  0  0  0  0  0
    3.7320    2.3261    0.0000 N   0  0  0  0  0  0  0  0  0  0  0  0
    2.0570    4.4139    0.0000 N   0  0  0  0  0  0  0  0  0  0  0  0
    8.9282    1.3261    0.0000 C   0  0  2  0  0  0  0  0  0  0  0  0
    8.0622    0.8261    0.0000 C   0  0  0  0  0  0  0  0  0  0  0  0
    9.0327    2.3206    0.0000 C   0  0  0  0  0  0  0  0  0  0  0  0
    8.0622   -0.1739    0.0000 C   0  0  1  0  0  0  0  0  0  0  0  0
   10.0109    2.5285    0.0000 C   0  0  0  0  0  0  0  0  0  0  0  0
    9.8418    0.9193    0.0000 C   0  0  0  0  0  0  0  0  0  0  0  0
    8.9282   -0.6739    0.0000 C   0  0  0  0  0  0  0  0  0  0  0  0
    5.4641   -0.6739    0.0000 C   0  0  3  0  0  0  0  0  0  0  0  0
    6.3301   -0.1739    0.0000 C   0  0  0  0  0  0  0  0  0  0  0  0
    8.9282   -1.6739    0.0000 C   0  0  0  0  0  0  0  0  0  0  0  0
    4.5981   -0.1739    0.0000 C   0  0  0  0  0  0  0  0  0  0  0  0
    3.7320    1.3261    0.0000 C   0  0  1  0  0  0  0  0  0  0  0  0
    2.8660    0.8261    0.0000 C   0  0  0  0  0  0  0  0  0  0  0  0
    4.5981    0.8261    0.0000 C   0  0  0  0  0  0  0  0  0  0  0  0
    8.1192   -2.2617    0.0000 C   0  0  0  0  0  0  0  0  0  0  0  0
    5.4641   -1.6739    0.0000 C   0  0  0  0  0  0  0  0  0  0  0  0
    8.4282   -3.2128    0.0000 C   0  0  0  0  0  0  0  0  0  0  0  0
    9.7372   -2.2617    0.0000 C   0  0  0  0  0  0  0  0  0  0  0  0
    2.0000    1.3261    0.0000 C   0  0  0  0  0  0  0  0  0  0  0  0
    2.8660   -0.1739    0.0000 C   0  0  0  0  0  0  0  0  0  0  0  0
    4.5981   -2.1739    0.0000 C   0  0  0  0  0  0  0  0  0  0  0  0
    2.8660    2.8261    0.0000 C   0  0  0  0  0  0  0  0  0  0  0  0
    4.5981   -3.1739    0.0000 C   0  0  0  0  0  0  0  0  0  0  0  0
    2.8660    3.8261    0.0000 C   0  0  0  0  0  0  0  0  0  0  0  0
    5.4641   -3.6739    0.0000 C   0  0  0  0  0  0  0  0  0  0  0  0
    3.7320   -3.6739    0.0000 C   0  0  0  0  0  0  0  0  0  0  0  0
    3.6750    4.4139    0.0000 C   0  0  0  0  0  0  0  0  0  0  0  0
    3.3660    5.3649    0.0000 C   0  0  0  0  0  0  0  0  0  0  0  0
    5.4641   -4.6739    0.0000 C   0  0  0  0  0  0  0  0  0  0  0  0
    3.7320   -4.6739    0.0000 C   0  0  0  0  0  0  0  0  0  0  0  0
    4.5981   -5.1739    0.0000 C   0  0  0  0  0  0  0  0  0  0  0  0
    3.9538    6.1739    0.0000 C   0  0  0  0  0  0  0  0  0  0  0  0
    8.9606    0.7069    0.0000 H   0  0  0  0  0  0  0  0  0  0  0  0
    7.8501    1.4087    0.0000 H   0  0  0  0  0  0  0  0  0  0  0  0
    7.4516    0.7184    0.0000 H   0  0  0  0  0  0  0  0  0  0  0  0
    8.9679    2.9372    0.0000 H   0  0  0  0  0  0  0  0  0  0  0  0
    8.4127    2.3206    0.0000 H   0  0  0  0  0  0  0  0  0  0  0  0
    8.0622   -0.7939    0.0000 H   0  0  0  0  0  0  0  0  0  0  0  0
   10.5773    2.7807    0.0000 H   0  0  0  0  0  0  0  0  0  0  0  0
    9.8193    3.1182    0.0000 H   0  0  0  0  0  0  0  0  0  0  0  0
   11.1275    1.5977    0.0000 H   0  0  0  0  0  0  0  0  0  0  0  0
    7.1962   -1.2939    0.0000 H   0  0  0  0  0  0  0  0  0  0  0  0
    9.4651   -0.3639    0.0000 H   0  0  0  0  0  0  0  0  0  0  0  0
    5.4641   -0.0539    0.0000 H   0  0  0  0  0  0  0  0  0  0  0  0
    3.9875   -0.0663    0.0000 H   0  0  0  0  0  0  0  0  0  0  0  0
    4.3860   -0.7565    0.0000 H   0  0  0  0  0  0  0  0  0  0  0  0
    4.2690    1.6361    0.0000 H   0  0  0  0  0  0  0  0  0  0  0  0
    3.4030    0.5161    0.0000 H   0  0  0  0  0  0  0  0  0  0  0  0
    7.8092   -1.7248    0.0000 H   0  0  0  0  0  0  0  0  0  0  0  0
    7.5528   -2.5139    0.0000 H   0  0  0  0  0  0  0  0  0  0  0  0
    6.0010   -1.9839    0.0000 H   0  0  0  0  0  0  0  0  0  0  0  0
    7.8218   -3.3417    0.0000 H   0  0  0  0  0  0  0  0  0  0  0  0
    8.4930   -3.8294    0.0000 H   0  0  0  0  0  0  0  0  0  0  0  0
    2.3100    1.8630    0.0000 H   0  0  0  0  0  0  0  0  0  0  0  0
    1.4631    1.6361    0.0000 H   0  0  0  0  0  0  0  0  0  0  0  0
    1.6900    0.7891    0.0000 H   0  0  0  0  0  0  0  0  0  0  0  0
    2.2460   -0.1739    0.0000 H   0  0  0  0  0  0  0  0  0  0  0  0
    2.8660   -0.7939    0.0000 H   0  0  0  0  0  0  0  0  0  0  0  0
    3.4860   -0.1739    0.0000 H   0  0  0  0  0  0  0  0  0  0  0  0
    4.2690    2.6361    0.0000 H   0  0  0  0  0  0  0  0  0  0  0  0
    4.0611   -1.8639    0.0000 H   0  0  0  0  0  0  0  0  0  0  0  0
    6.0010   -3.3639    0.0000 H   0  0  0  0  0  0  0  0  0  0  0  0
    3.1951   -3.3639    0.0000 H   0  0  0  0  0  0  0  0  0  0  0  0
    4.2647    4.2223    0.0000 H   0  0  0  0  0  0  0  0  0  0  0  0
    6.0010   -4.9839    0.0000 H   0  0  0  0  0  0  0  0  0  0  0  0
    3.1951   -4.9839    0.0000 H   0  0  0  0  0  0  0  0  0  0  0  0
    4.4554    5.8095    0.0000 H   0  0  0  0  0  0  0  0  0  0  0  0
    4.3182    6.6755    0.0000 H   0  0  0  0  0  0  0  0  0  0  0  0
    3.4522    6.5384    0.0000 H   0  0  0  0  0  0  0  0  0  0  0  0
  1 43  1  0  0  0  0
  2 18  2  0  0  0  0
  3 29  1  0  0  0  0
  3 30  1  0  0  0  0
  4 21  2  0  0  0  0
  5 26  2  0  0  0  0
  6 30  2  0  0  0  0
  7 34  2  0  0  0  0
  8 12  1  0  0  0  0
  8 40  1  0  0  0  0
  9 17  1  0  0  0  0
  9 18  1  0  0  0  0
  9 53  1  0  0  0  0
 16 10  1  1  0  0  0
 10 21  1  0  0  0  0
 10 54  1  0  0  0  0
 24 11  1  6  0  0  0
 11 34  1  0  0  0  0
 11 72  1  0  0  0  0
 12 36  2  0  0  0  0
 13 14  1  6  0  0  0
 13 15  1  0  0  0  0
 13 18  1  0  0  0  0
 13 45  1  0  0  0  0
 14 16  1  0  0  0  0
 14 46  1  0  0  0  0
 14 47  1  0  0  0  0
 15 17  1  0  0  0  0
 15 48  1  0  0  0  0
 15 49  1  0  0  0  0
 16 19  1  0  0  0  0
 16 50  1  0  0  0  0
 17 51  1  0  0  0  0
 17 52  1  0  0  0  0
 19 22  2  0  0  0  0
 19 55  1  0  0  0  0
 20 21  1  0  0  0  0
 20 23  1  0  0  0  0
 20 28  1  0  0  0  0
 20 56  1  0  0  0  0
 22 27  1  0  0  0  0
 22 30  1  0  0  0  0
 23 26  1  0  0  0  0
 23 57  1  0  0  0  0
 23 58  1  0  0  0  0
 24 25  1  0  0  0  0
 24 26  1  0  0  0  0
 24 59  1  0  0  0  0
 25 31  1  0  0  0  0
 25 32  1  0  0  0  0
 25 60  1  0  0  0  0
 27 29  1  0  0  0  0
 27 61  1  0  0  0  0
 27 62  1  0  0  0  0
 28 33  2  0  0  0  0
 28 63  1  0  0  0  0
 29 64  1  0  0  0  0
 29 65  1  0  0  0  0
 31 66  1  0  0  0  0
 31 67  1  0  0  0  0
 31 68  1  0  0  0  0
 32 69  1  0  0  0  0
 32 70  1  0  0  0  0
 32 71  1  0  0  0  0
 33 35  1  0  0  0  0
 33 73  1  0  0  0  0
 34 36  1  0  0  0  0
 35 37  2  0  0  0  0
 35 38  1  0  0  0  0
 36 39  1  0  0  0  0
 37 41  1  0  0  0  0
 37 74  1  0  0  0  0
 38 42  2  0  0  0  0
 38 75  1  0  0  0  0
 39 40  2  0  0  0  0
 39 76  1  0  0  0  0
 40 44  1  0  0  0  0
 41 43  2  0  0  0  0
 41 77  1  0  0  0  0
 42 43  1  0  0  0  0
 42 78  1  0  0  0  0
 44 79  1  0  0  0  0
 44 80  1  0  0  0  0
 44 81  1  0  0  0  0
M  END
> <PUBCHEM_COMPOUND_CID>
141970667

> <PUBCHEM_COMPOUND_CANONICALIZED>
1

> <PUBCHEM_CACTVS_COMPLEXITY>
1130

> <PUBCHEM_CACTVS_HBOND_ACCEPTOR>
9

> <PUBCHEM_CACTVS_HBOND_DONOR>
3

> <PUBCHEM_CACTVS_ROTATABLE_BOND>
13

> <PUBCHEM_CACTVS_SUBSKEYS>
AAADcfB/uQAAAAAAAAAAAAAAAAAAAWLEgAAwAAAAAAAAAAABwAAAHwAUAAAADSzhng4yjJLQBACpA6XyWgCCAAAmIgAomKG+bNoIZjqAtbOWMYhm1hiI6cc/iUCeAAAAAAAAAAAAAAAAAAAAAAAAAAAAAA==

> <PUBCHEM_IUPAC_OPENEYE_NAME>
N-[(E,1S)-6-(4-fluorophenyl)-1-isopropyl-2-oxo-4-[[(1S,2E)-1-[[(3S)-2-oxopyrrolidin-3-yl]methyl]-2-(2-oxotetrahydrofuran-3-ylidene)ethyl]carbamoyl]hex-5-enyl]-5-methyl-isoxazole-3-carboxamide

> <PUBCHEM_IUPAC_CAS_NAME>
N-[(E,3S)-8-(4-fluorophenyl)-2-methyl-4-oxo-6-[oxo-[[(1E,2S)-1-(2-oxo-3-oxolanylidene)-3-[(3S)-2-oxo-3-pyrrolidinyl]propan-2-yl]amino]methyl]oct-7-en-3-yl]-5-methyl-3-isoxazolecarboxamide

> <PUBCHEM_IUPAC_NAME_MARKUP>
<I>N</I>-[(<I>E</I>,3<I>S</I>)-8-(4-fluorophenyl)-2-methyl-4-oxo-6-[[(1<I>E</I>,2<I>S</I>)-1-(2-oxooxolan-3-ylidene)-3-[(3<I>S</I>)-2-oxopyrrolidin-3-yl]propan-2-yl]carbamoyl]oct-7-en-3-yl]-5-methyl-1,2-oxazole-3-carboxamide

> <PUBCHEM_IUPAC_NAME>
N-[(E,3S)-8-(4-fluorophenyl)-2-methyl-4-oxo-6-[[(1E,2S)-1-(2-oxooxolan-3-ylidene)-3-[(3S)-2-oxopyrrolidin-3-yl]propan-2-yl]carbamoyl]oct-7-en-3-yl]-5-methyl-1,2-oxazole-3-carboxamide

> <PUBCHEM_IUPAC_SYSTEMATIC_NAME>
N-[(E,3S)-8-(4-fluorophenyl)-2-methyl-4-oxidanylidene-6-[[(1E,2S)-1-(2-oxidanylideneoxolan-3-ylidene)-3-[(3S)-2-oxidanylidenepyrrolidin-3-yl]propan-2-yl]carbamoyl]oct-7-en-3-yl]-5-methyl-1,2-oxazole-3-carboxamide

> <PUBCHEM_IUPAC_TRADITIONAL_NAME>
N-[(E,1S)-6-(4-fluorophenyl)-1-isopropyl-2-keto-4-[[(1S,2E)-1-[[(3S)-2-ketopyrrolidin-3-yl]methyl]-2-(2-ketotetrahydrofuran-3-ylidene)ethyl]carbamoyl]hex-5-enyl]-5-methyl-isoxazole-3-carboxamide

> <PUBCHEM_IUPAC_INCHI>
InChI=1S/C32H37FN4O7/c1-18(2)28(36-31(41)26-14-19(3)44-37-26)27(38)17-21(7-4-20-5-8-24(33)9-6-20)30(40)35-25(15-22-10-12-34-29(22)39)16-23-11-13-43-32(23)42/h4-9,14,16,18,21-22,25,28H,10-13,15,17H2,1-3H3,(H,34,39)(H,35,40)(H,36,41)/b7-4+,23-16+/t21?,22-,25-,28-/m0/s1

> <PUBCHEM_IUPAC_INCHIKEY>
LCVUJCPXFVOQQK-OJPRGMFISA-N

> <PUBCHEM_XLOGP3_AA>
3.1

> <PUBCHEM_EXACT_MASS>
608.264628

> <PUBCHEM_MOLECULAR_FORMULA>
C32H37FN4O7

> <PUBCHEM_MOLECULAR_WEIGHT>
608.7

> <PUBCHEM_OPENEYE_CAN_SMILES>
CC1=CC(=NO1)C(=O)NC(C(C)C)C(=O)CC(C=CC2=CC=C(C=C2)F)C(=O)NC(CC3CCNC3=O)C=C4CCOC4=O

> <PUBCHEM_OPENEYE_ISO_SMILES>
CC1=CC(=NO1)C(=O)N[C@@H](C(C)C)C(=O)CC(/C=C/C2=CC=C(C=C2)F)C(=O)N[C@@H](C[C@@H]3CCNC3=O)/C=C/4\CCOC4=O

> <PUBCHEM_CACTVS_TPSA>
157

> <PUBCHEM_MONOISOTOPIC_WEIGHT>
608.264628

> <PUBCHEM_TOTAL_CHARGE>
0

> <PUBCHEM_HEAVY_ATOM_COUNT>
44

> <PUBCHEM_ATOM_DEF_STEREO_COUNT>
3

> <PUBCHEM_ATOM_UDEF_STEREO_COUNT>
1

> <PUBCHEM_BOND_DEF_STEREO_COUNT>
2

> <PUBCHEM_BOND_UDEF_STEREO_COUNT>
0

> <PUBCHEM_ISOTOPIC_ATOM_COUNT>
0

> <PUBCHEM_COMPONENT_COUNT>
1

> <PUBCHEM_CACTVS_TAUTO_COUNT>
-1

> <PUBCHEM_COORDINATE_TYPE>
1
5
255

> <PUBCHEM_BONDANNOTATIONS>
16  10  5
24  11  6
12  36  8
13  14  6
20  23  3
35  37  8
35  38  8
36  39  8
37  41  8
38  42  8
39  40  8
41  43  8
42  43  8
8  12  8
8  40  8

$$$$
142066935
  -OEChem-02212016592D

 77 79  0     1  0  0  0  0  0999 V2000
   11.7194    4.9563    0.0000 O   0  0  0  0  0  0  0  0  0  0  0  0
   10.6259    8.6200    0.0000 O   0  0  0  0  0  0  0  0  0  0  0  0
    8.8939    3.6200    0.0000 O   0  0  0  0  0  0  0  0  0  0  0  0
   10.6259    3.6200    0.0000 O   0  0  0  0  0  0  0  0  0  0  0  0
    7.1618    9.6200    0.0000 O   0  0  0  0  0  0  0  0  0  0  0  0
    8.0279   13.1200    0.0000 O   0  0  0  0  0  0  0  0  0  0  0  0
    4.7131   13.4564    0.0000 O   0  0  0  0  0  0  0  0  0  0  0  0
   13.4407    5.4176    0.0000 N   0  0  0  0  0  0  0  0  0  0  0  0
    9.7599    7.1200    0.0000 N   0  0  0  0  0  0  0  0  0  0  0  0
    8.8939    9.6200    0.0000 N   0  0  0  0  0  0  0  0  0  0  0  0
    7.1618   11.6200    0.0000 N   0  0  0  0  0  0  0  0  0  0  0  0
    5.3823   12.7133    0.0000 N   0  0  0  0  0  0  0  0  0  0  0  0
   12.3580    6.6200    0.0000 C   0  0  3  0  0  0  0  0  0  0  0  0
   13.2715    7.0267    0.0000 C   0  0  0  0  0  0  0  0  0  0  0  0
   11.4920    7.1200    0.0000 C   0  0  0  0  0  0  0  0  0  0  0  0
   13.9407    6.2836    0.0000 C   0  0  0  0  0  0  0  0  0  0  0  0
   10.6259    6.6200    0.0000 C   0  0  3  0  0  0  0  0  0  0  0  0
   12.4625    5.6255    0.0000 C   0  0  0  0  0  0  0  0  0  0  0  0
   10.6259    5.6200    0.0000 C   0  0  0  0  0  0  0  0  0  0  0  0
    9.7599    8.1200    0.0000 C   0  0  0  0  0  0  0  0  0  0  0  0
    9.7599    5.1200    0.0000 C   0  0  0  0  0  0  0  0  0  0  0  0
    8.8939    8.6200    0.0000 C   0  0  0  0  0  0  0  0  0  0  0  0
    9.7599    4.1200    0.0000 C   0  0  0  0  0  0  0  0  0  0  0  0
    8.0279   10.1200    0.0000 C   0  0  0  0  0  0  0  0  0  0  0  0
    9.7599   10.1200    0.0000 C   0  0  0  0  0  0  0  0  0  0  0  0
    8.0279   11.1200    0.0000 C   0  0  0  0  0  0  0  0  0  0  0  0
    9.7599   11.1200    0.0000 C   0  0  0  0  0  0  0  0  0  0  0  0
    8.8939   11.6200    0.0000 C   0  0  0  0  0  0  0  0  0  0  0  0
    8.8939    2.6200    0.0000 C   0  0  0  0  0  0  0  0  0  0  0  0
    8.0279    2.1200    0.0000 C   0  0  0  0  0  0  0  0  0  0  0  0
    7.1618   12.6200    0.0000 C   0  0  0  0  0  0  0  0  0  0  0  0
    8.0279    1.1200    0.0000 C   0  0  0  0  0  0  0  0  0  0  0  0
    7.1618    2.6200    0.0000 C   0  0  0  0  0  0  0  0  0  0  0  0
    6.2958   13.1200    0.0000 C   0  0  0  0  0  0  0  0  0  0  0  0
    7.1618    0.6200    0.0000 C   0  0  0  0  0  0  0  0  0  0  0  0
    6.2958    2.1200    0.0000 C   0  0  0  0  0  0  0  0  0  0  0  0
    6.1913   14.1145    0.0000 C   0  0  0  0  0  0  0  0  0  0  0  0
    6.2958    1.1200    0.0000 C   0  0  0  0  0  0  0  0  0  0  0  0
    5.2131   14.3224    0.0000 C   0  0  0  0  0  0  0  0  0  0  0  0
    4.8064   15.2360    0.0000 C   0  0  0  0  0  0  0  0  0  0  0  0
    0.6200    7.9012    0.0000 C   0  0  0  0  0  0  0  0  0  0  0  0
    1.6200    7.9012    0.0000 C   0  0  0  0  0  0  0  0  0  0  0  0
   11.8380    6.2823    0.0000 H   0  0  0  0  0  0  0  0  0  0  0  0
   13.7731    7.3912    0.0000 H   0  0  0  0  0  0  0  0  0  0  0  0
   12.9615    7.5637    0.0000 H   0  0  0  0  0  0  0  0  0  0  0  0
   11.8905    7.5950    0.0000 H   0  0  0  0  0  0  0  0  0  0  0  0
   11.0934    7.5950    0.0000 H   0  0  0  0  0  0  0  0  0  0  0  0
   14.4423    5.9192    0.0000 H   0  0  0  0  0  0  0  0  0  0  0  0
   14.3555    6.7443    0.0000 H   0  0  0  0  0  0  0  0  0  0  0  0
   10.6259    7.2400    0.0000 H   0  0  0  0  0  0  0  0  0  0  0  0
   13.6928    4.8512    0.0000 H   0  0  0  0  0  0  0  0  0  0  0  0
    9.2230    6.8100    0.0000 H   0  0  0  0  0  0  0  0  0  0  0  0
   11.1629    5.3100    0.0000 H   0  0  0  0  0  0  0  0  0  0  0  0
    9.2230    5.4300    0.0000 H   0  0  0  0  0  0  0  0  0  0  0  0
    8.2833    8.7277    0.0000 H   0  0  0  0  0  0  0  0  0  0  0  0
    8.6818    8.0374    0.0000 H   0  0  0  0  0  0  0  0  0  0  0  0
   10.2968    9.8100    0.0000 H   0  0  0  0  0  0  0  0  0  0  0  0
   10.2968   11.4300    0.0000 H   0  0  0  0  0  0  0  0  0  0  0  0
    8.8939   12.2400    0.0000 H   0  0  0  0  0  0  0  0  0  0  0  0
    9.1059    2.0374    0.0000 H   0  0  0  0  0  0  0  0  0  0  0  0
    9.5045    2.7277    0.0000 H   0  0  0  0  0  0  0  0  0  0  0  0
    6.6249   11.3100    0.0000 H   0  0  0  0  0  0  0  0  0  0  0  0
    8.5648    0.8100    0.0000 H   0  0  0  0  0  0  0  0  0  0  0  0
    7.1618    3.2400    0.0000 H   0  0  0  0  0  0  0  0  0  0  0  0
    7.1618    0.0000    0.0000 H   0  0  0  0  0  0  0  0  0  0  0  0
    5.7589    2.4300    0.0000 H   0  0  0  0  0  0  0  0  0  0  0  0
    6.6520   14.5294    0.0000 H   0  0  0  0  0  0  0  0  0  0  0  0
    5.7589    0.8100    0.0000 H   0  0  0  0  0  0  0  0  0  0  0  0
    5.3728   15.4882    0.0000 H   0  0  0  0  0  0  0  0  0  0  0  0
    4.5542   15.8024    0.0000 H   0  0  0  0  0  0  0  0  0  0  0  0
    4.2400   14.9838    0.0000 H   0  0  0  0  0  0  0  0  0  0  0  0
    0.6200    8.5212    0.0000 H   0  0  0  0  0  0  0  0  0  0  0  0
    0.0000    7.9012    0.0000 H   0  0  0  0  0  0  0  0  0  0  0  0
    0.6200    7.2812    0.0000 H   0  0  0  0  0  0  0  0  0  0  0  0
    1.6200    7.2812    0.0000 H   0  0  0  0  0  0  0  0  0  0  0  0
    2.2400    7.9012    0.0000 H   0  0  0  0  0  0  0  0  0  0  0  0
    1.6200    8.5212    0.0000 H   0  0  0  0  0  0  0  0  0  0  0  0
  1 18  2  0  0  0  0
  2 20  2  0  0  0  0
  3 23  1  0  0  0  0
  3 29  1  0  0  0  0
  4 23  2  0  0  0  0
  5 24  2  0  0  0  0
  6 31  2  0  0  0  0
  7 12  1  0  0  0  0
  7 39  1  0  0  0  0
  8 16  1  0  0  0  0
  8 18  1  0  0  0  0
  8 51  1  0  0  0  0
  9 17  1  0  0  0  0
  9 20  1  0  0  0  0
  9 52  1  0  0  0  0
 10 22  1  0  0  0  0
 10 24  1  0  0  0  0
 10 25  1  0  0  0  0
 11 26  1  0  0  0  0
 11 31  1  0  0  0  0
 11 62  1  0  0  0  0
 12 34  2  0  0  0  0
 13 14  1  0  0  0  0
 13 15  1  0  0  0  0
 13 18  1  0  0  0  0
 13 43  1  0  0  0  0
 14 16  1  0  0  0  0
 14 44  1  0  0  0  0
 14 45  1  0  0  0  0
 15 17  1  0  0  0  0
 15 46  1  0  0  0  0
 15 47  1  0  0  0  0
 16 48  1  0  0  0  0
 16 49  1  0  0  0  0
 17 19  1  0  0  0  0
 17 50  1  0  0  0  0
 19 21  2  0  0  0  0
 19 53  1  0  0  0  0
 20 22  1  0  0  0  0
 21 23  1  0  0  0  0
 21 54  1  0  0  0  0
 22 55  1  0  0  0  0
 22 56  1  0  0  0  0
 24 26  1  0  0  0  0
 25 27  2  0  0  0  0
 25 57  1  0  0  0  0
 26 28  2  0  0  0  0
 27 28  1  0  0  0  0
 27 58  1  0  0  0  0
 28 59  1  0  0  0  0
 29 30  1  0  0  0  0
 29 60  1  0  0  0  0
 29 61  1  0  0  0  0
 30 32  2  0  0  0  0
 30 33  1  0  0  0  0
 31 34  1  0  0  0  0
 32 35  1  0  0  0  0
 32 63  1  0  0  0  0
 33 36  2  0  0  0  0
 33 64  1  0  0  0  0
 34 37  1  0  0  0  0
 35 38  2  0  0  0  0
 35 65  1  0  0  0  0
 36 38  1  0  0  0  0
 36 66  1  0  0  0  0
 37 39  2  0  0  0  0
 37 67  1  0  0  0  0
 38 68  1  0  0  0  0
 39 40  1  0  0  0  0
 40 69  1  0  0  0  0
 40 70  1  0  0  0  0
 40 71  1  0  0  0  0
 41 42  1  0  0  0  0
 41 72  1  0  0  0  0
 41 73  1  0  0  0  0
 41 74  1  0  0  0  0
 42 75  1  0  0  0  0
 42 76  1  0  0  0  0
 42 77  1  0  0  0  0
M  END
> <PUBCHEM_COMPOUND_CID>
142066935

> <PUBCHEM_COMPOUND_CANONICALIZED>
1

> <PUBCHEM_CACTVS_COMPLEXITY>
1070

> <PUBCHEM_CACTVS_HBOND_ACCEPTOR>
8

> <PUBCHEM_CACTVS_HBOND_DONOR>
3

> <PUBCHEM_CACTVS_ROTATABLE_BOND>
12

> <PUBCHEM_CACTVS_SUBSKEYS>
AAADcfB7uAAAAAAAAAAAAAAAAAAAAWLAAAAwQAAAAAAAAAABwAAAHgAUAAAADSzhngYyjJPQBACpA6X2WgCCAAAmIgAomKG+bNoIZjqAtbuWMYhm1hmI6ce/wCAOAAAAAAAAAAAAAAAAAAAAAAAAAAAAAA==

> <PUBCHEM_IUPAC_OPENEYE_NAME>
benzyl (E)-4-[[2-[3-[(5-methylisoxazole-3-carbonyl)amino]-2-oxo-1-pyridyl]acetyl]amino]-5-(2-oxopyrrolidin-3-yl)pent-2-enoate;ethane

> <PUBCHEM_IUPAC_CAS_NAME>
ethane;(E)-4-[[2-[3-[[(5-methyl-3-isoxazolyl)-oxomethyl]amino]-2-oxo-1-pyridinyl]-1-oxoethyl]amino]-5-(2-oxo-3-pyrrolidinyl)-2-pentenoic acid (phenylmethyl) ester

> <PUBCHEM_IUPAC_NAME_MARKUP>
benzyl (<I>E</I>)-4-[[2-[3-[(5-methyl-1,2-oxazole-3-carbonyl)amino]-2-oxopyridin-1-yl]acetyl]amino]-5-(2-oxopyrrolidin-3-yl)pent-2-enoate;ethane

> <PUBCHEM_IUPAC_NAME>
benzyl (E)-4-[[2-[3-[(5-methyl-1,2-oxazole-3-carbonyl)amino]-2-oxopyridin-1-yl]acetyl]amino]-5-(2-oxopyrrolidin-3-yl)pent-2-enoate;ethane

> <PUBCHEM_IUPAC_SYSTEMATIC_NAME>
ethane;(phenylmethyl) (E)-4-[2-[3-[(5-methyl-1,2-oxazol-3-yl)carbonylamino]-2-oxidanylidene-pyridin-1-yl]ethanoylamino]-5-(2-oxidanylidenepyrrolidin-3-yl)pent-2-enoate

> <PUBCHEM_IUPAC_TRADITIONAL_NAME>
ethane;(E)-4-[[2-[2-keto-3-[(5-methylisoxazole-3-carbonyl)amino]-1-pyridyl]acetyl]amino]-5-(2-ketopyrrolidin-3-yl)pent-2-enoic acid benzyl ester

> <PUBCHEM_IUPAC_INCHI>
InChI=1S/C28H29N5O7.C2H6/c1-18-14-23(32-40-18)27(37)31-22-8-5-13-33(28(22)38)16-24(34)30-21(15-20-11-12-29-26(20)36)9-10-25(35)39-17-19-6-3-2-4-7-19;1-2/h2-10,13-14,20-21H,11-12,15-17H2,1H3,(H,29,36)(H,30,34)(H,31,37);1-2H3/b10-9+;

> <PUBCHEM_IUPAC_INCHIKEY>
YRDBRDABNZKUGX-RRABGKBLSA-N

> <PUBCHEM_EXACT_MASS>
577.253648

> <PUBCHEM_MOLECULAR_FORMULA>
C30H35N5O7

> <PUBCHEM_MOLECULAR_WEIGHT>
577.6

> <PUBCHEM_OPENEYE_CAN_SMILES>
CC.CC1=CC(=NO1)C(=O)NC2=CC=CN(C2=O)CC(=O)NC(CC3CCNC3=O)C=CC(=O)OCC4=CC=CC=C4

> <PUBCHEM_OPENEYE_ISO_SMILES>
CC.CC1=CC(=NO1)C(=O)NC2=CC=CN(C2=O)CC(=O)NC(CC3CCNC3=O)/C=C/C(=O)OCC4=CC=CC=C4

> <PUBCHEM_CACTVS_TPSA>
160

> <PUBCHEM_MONOISOTOPIC_WEIGHT>
577.253648

> <PUBCHEM_TOTAL_CHARGE>
0

> <PUBCHEM_HEAVY_ATOM_COUNT>
42

> <PUBCHEM_ATOM_DEF_STEREO_COUNT>
0

> <PUBCHEM_ATOM_UDEF_STEREO_COUNT>
2

> <PUBCHEM_BOND_DEF_STEREO_COUNT>
1

> <PUBCHEM_BOND_UDEF_STEREO_COUNT>
0

> <PUBCHEM_ISOTOPIC_ATOM_COUNT>
0

> <PUBCHEM_COMPONENT_COUNT>
2

> <PUBCHEM_CACTVS_TAUTO_COUNT>
-1

> <PUBCHEM_COORDINATE_TYPE>
1
5
255

> <PUBCHEM_BONDANNOTATIONS>
10  24  8
10  25  8
12  34  8
13  15  3
17  15  3
24  26  8
25  27  8
26  28  8
27  28  8
30  32  8
30  33  8
32  35  8
33  36  8
34  37  8
35  38  8
36  38  8
37  39  8
7  12  8
7  39  8

$$$$
142066936
  -OEChem-02212016592D

 69 72  0     1  0  0  0  0  0999 V2000
    9.0062   -2.9716    0.0000 O   0  0  0  0  0  0  0  0  0  0  0  0
    7.9128    0.6920    0.0000 O   0  0  0  0  0  0  0  0  0  0  0  0
    6.1808   -4.3080    0.0000 O   0  0  0  0  0  0  0  0  0  0  0  0
    7.9128   -4.3080    0.0000 O   0  0  0  0  0  0  0  0  0  0  0  0
    4.4487    1.6920    0.0000 O   0  0  0  0  0  0  0  0  0  0  0  0
    5.3147    5.1920    0.0000 O   0  0  0  0  0  0  0  0  0  0  0  0
    2.0000    5.5284    0.0000 O   0  0  0  0  0  0  0  0  0  0  0  0
   10.7275   -2.5104    0.0000 N   0  0  0  0  0  0  0  0  0  0  0  0
    7.0468   -0.8080    0.0000 N   0  0  0  0  0  0  0  0  0  0  0  0
    6.1808    1.6920    0.0000 N   0  0  0  0  0  0  0  0  0  0  0  0
    4.4487    3.6920    0.0000 N   0  0  0  0  0  0  0  0  0  0  0  0
    2.6691    4.7853    0.0000 N   0  0  0  0  0  0  0  0  0  0  0  0
    9.6448   -1.3080    0.0000 C   0  0  3  0  0  0  0  0  0  0  0  0
   10.5584   -0.9013    0.0000 C   0  0  0  0  0  0  0  0  0  0  0  0
    8.7788   -0.8080    0.0000 C   0  0  0  0  0  0  0  0  0  0  0  0
   11.2275   -1.6444    0.0000 C   0  0  0  0  0  0  0  0  0  0  0  0
    7.9128   -1.3080    0.0000 C   0  0  3  0  0  0  0  0  0  0  0  0
    9.7494   -2.3025    0.0000 C   0  0  0  0  0  0  0  0  0  0  0  0
    7.9128   -2.3080    0.0000 C   0  0  0  0  0  0  0  0  0  0  0  0
    7.0468    0.1920    0.0000 C   0  0  0  0  0  0  0  0  0  0  0  0
    7.0468   -2.8080    0.0000 C   0  0  0  0  0  0  0  0  0  0  0  0
    6.1808    0.6920    0.0000 C   0  0  0  0  0  0  0  0  0  0  0  0
    7.0468   -3.8080    0.0000 C   0  0  0  0  0  0  0  0  0  0  0  0
    5.3147    2.1920    0.0000 C   0  0  0  0  0  0  0  0  0  0  0  0
    7.0468    2.1920    0.0000 C   0  0  0  0  0  0  0  0  0  0  0  0
    5.3147    3.1920    0.0000 C   0  0  0  0  0  0  0  0  0  0  0  0
    7.0468    3.1920    0.0000 C   0  0  0  0  0  0  0  0  0  0  0  0
    6.1808    3.6920    0.0000 C   0  0  0  0  0  0  0  0  0  0  0  0
    6.1808   -5.3080    0.0000 C   0  0  0  0  0  0  0  0  0  0  0  0
    5.3147   -5.8080    0.0000 C   0  0  0  0  0  0  0  0  0  0  0  0
    4.4487    4.6920    0.0000 C   0  0  0  0  0  0  0  0  0  0  0  0
    5.3147   -6.8080    0.0000 C   0  0  0  0  0  0  0  0  0  0  0  0
    4.4487   -5.3080    0.0000 C   0  0  0  0  0  0  0  0  0  0  0  0
    3.5827    5.1920    0.0000 C   0  0  0  0  0  0  0  0  0  0  0  0
    4.4487   -7.3080    0.0000 C   0  0  0  0  0  0  0  0  0  0  0  0
    3.5827   -5.8080    0.0000 C   0  0  0  0  0  0  0  0  0  0  0  0
    3.4782    6.1865    0.0000 C   0  0  0  0  0  0  0  0  0  0  0  0
    3.5827   -6.8080    0.0000 C   0  0  0  0  0  0  0  0  0  0  0  0
    2.5000    6.3944    0.0000 C   0  0  0  0  0  0  0  0  0  0  0  0
    2.0933    7.3080    0.0000 C   0  0  0  0  0  0  0  0  0  0  0  0
    9.1249   -1.6457    0.0000 H   0  0  0  0  0  0  0  0  0  0  0  0
   11.0600   -0.5368    0.0000 H   0  0  0  0  0  0  0  0  0  0  0  0
   10.2484   -0.3643    0.0000 H   0  0  0  0  0  0  0  0  0  0  0  0
    9.1774   -0.3330    0.0000 H   0  0  0  0  0  0  0  0  0  0  0  0
    8.3803   -0.3330    0.0000 H   0  0  0  0  0  0  0  0  0  0  0  0
   11.7291   -2.0088    0.0000 H   0  0  0  0  0  0  0  0  0  0  0  0
   11.6424   -1.1836    0.0000 H   0  0  0  0  0  0  0  0  0  0  0  0
    7.9128   -0.6880    0.0000 H   0  0  0  0  0  0  0  0  0  0  0  0
   10.9797   -3.0768    0.0000 H   0  0  0  0  0  0  0  0  0  0  0  0
    6.5098   -1.1180    0.0000 H   0  0  0  0  0  0  0  0  0  0  0  0
    8.4497   -2.6180    0.0000 H   0  0  0  0  0  0  0  0  0  0  0  0
    6.5098   -2.4980    0.0000 H   0  0  0  0  0  0  0  0  0  0  0  0
    5.5702    0.7997    0.0000 H   0  0  0  0  0  0  0  0  0  0  0  0
    5.9687    0.1094    0.0000 H   0  0  0  0  0  0  0  0  0  0  0  0
    7.5837    1.8820    0.0000 H   0  0  0  0  0  0  0  0  0  0  0  0
    7.5837    3.5020    0.0000 H   0  0  0  0  0  0  0  0  0  0  0  0
    6.1808    4.3120    0.0000 H   0  0  0  0  0  0  0  0  0  0  0  0
    6.3928   -5.8906    0.0000 H   0  0  0  0  0  0  0  0  0  0  0  0
    6.7913   -5.2003    0.0000 H   0  0  0  0  0  0  0  0  0  0  0  0
    3.9118    3.3820    0.0000 H   0  0  0  0  0  0  0  0  0  0  0  0
    5.8517   -7.1180    0.0000 H   0  0  0  0  0  0  0  0  0  0  0  0
    4.4487   -4.6880    0.0000 H   0  0  0  0  0  0  0  0  0  0  0  0
    3.9389    6.6014    0.0000 H   0  0  0  0  0  0  0  0  0  0  0  0
    4.4487   -7.9280    0.0000 H   0  0  0  0  0  0  0  0  0  0  0  0
    3.0457   -5.4980    0.0000 H   0  0  0  0  0  0  0  0  0  0  0  0
    3.0457   -7.1180    0.0000 H   0  0  0  0  0  0  0  0  0  0  0  0
    2.6597    7.5602    0.0000 H   0  0  0  0  0  0  0  0  0  0  0  0
    1.8411    7.8744    0.0000 H   0  0  0  0  0  0  0  0  0  0  0  0
    1.5269    7.0558    0.0000 H   0  0  0  0  0  0  0  0  0  0  0  0
  1 18  2  0  0  0  0
  2 20  2  0  0  0  0
  3 23  1  0  0  0  0
  3 29  1  0  0  0  0
  4 23  2  0  0  0  0
  5 24  2  0  0  0  0
  6 31  2  0  0  0  0
  7 12  1  0  0  0  0
  7 39  1  0  0  0  0
  8 16  1  0  0  0  0
  8 18  1  0  0  0  0
  8 49  1  0  0  0  0
  9 17  1  0  0  0  0
  9 20  1  0  0  0  0
  9 50  1  0  0  0  0
 10 22  1  0  0  0  0
 10 24  1  0  0  0  0
 10 25  1  0  0  0  0
 11 26  1  0  0  0  0
 11 31  1  0  0  0  0
 11 60  1  0  0  0  0
 12 34  2  0  0  0  0
 13 14  1  0  0  0  0
 13 15  1  0  0  0  0
 13 18  1  0  0  0  0
 13 41  1  0  0  0  0
 14 16  1  0  0  0  0
 14 42  1  0  0  0  0
 14 43  1  0  0  0  0
 15 17  1  0  0  0  0
 15 44  1  0  0  0  0
 15 45  1  0  0  0  0
 16 46  1  0  0  0  0
 16 47  1  0  0  0  0
 17 19  1  0  0  0  0
 17 48  1  0  0  0  0
 19 21  2  0  0  0  0
 19 51  1  0  0  0  0
 20 22  1  0  0  0  0
 21 23  1  0  0  0  0
 21 52  1  0  0  0  0
 22 53  1  0  0  0  0
 22 54  1  0  0  0  0
 24 26  1  0  0  0  0
 25 27  2  0  0  0  0
 25 55  1  0  0  0  0
 26 28  2  0  0  0  0
 27 28  1  0  0  0  0
 27 56  1  0  0  0  0
 28 57  1  0  0  0  0
 29 30  1  0  0  0  0
 29 58  1  0  0  0  0
 29 59  1  0  0  0  0
 30 32  2  0  0  0  0
 30 33  1  0  0  0  0
 31 34  1  0  0  0  0
 32 35  1  0  0  0  0
 32 61  1  0  0  0  0
 33 36  2  0  0  0  0
 33 62  1  0  0  0  0
 34 37  1  0  0  0  0
 35 38  2  0  0  0  0
 35 64  1  0  0  0  0
 36 38  1  0  0  0  0
 36 65  1  0  0  0  0
 37 39  2  0  0  0  0
 37 63  1  0  0  0  0
 38 66  1  0  0  0  0
 39 40  1  0  0  0  0
 40 67  1  0  0  0  0
 40 68  1  0  0  0  0
 40 69  1  0  0  0  0
M  END
> <PUBCHEM_COMPOUND_CID>
142066936

> <PUBCHEM_COMPOUND_CANONICALIZED>
1

> <PUBCHEM_CACTVS_COMPLEXITY>
1070

> <PUBCHEM_CACTVS_HBOND_ACCEPTOR>
8

> <PUBCHEM_CACTVS_HBOND_DONOR>
3

> <PUBCHEM_CACTVS_ROTATABLE_BOND>
12

> <PUBCHEM_CACTVS_SUBSKEYS>
AAADceB7uAAAAAAAAAAAAAAAAAAAAWLAAAAwQAAAAAAAAAABwAAAHgAUAAAADSzhngYyjJPQBACpA6X2WgCCAAAmIgAomKG+bNoIZjqAtbuWMYhm1hmI6ce/wCAOAAAAAAAAAAAAAAAAAAAAAAAAAAAAAA==

> <PUBCHEM_IUPAC_OPENEYE_NAME>
benzyl (E)-4-[[2-[3-[(5-methylisoxazole-3-carbonyl)amino]-2-oxo-1-pyridyl]acetyl]amino]-5-(2-oxopyrrolidin-3-yl)pent-2-enoate

> <PUBCHEM_IUPAC_CAS_NAME>
(E)-4-[[2-[3-[[(5-methyl-3-isoxazolyl)-oxomethyl]amino]-2-oxo-1-pyridinyl]-1-oxoethyl]amino]-5-(2-oxo-3-pyrrolidinyl)-2-pentenoic acid (phenylmethyl) ester

> <PUBCHEM_IUPAC_NAME_MARKUP>
benzyl (<I>E</I>)-4-[[2-[3-[(5-methyl-1,2-oxazole-3-carbonyl)amino]-2-oxopyridin-1-yl]acetyl]amino]-5-(2-oxopyrrolidin-3-yl)pent-2-enoate

> <PUBCHEM_IUPAC_NAME>
benzyl (E)-4-[[2-[3-[(5-methyl-1,2-oxazole-3-carbonyl)amino]-2-oxopyridin-1-yl]acetyl]amino]-5-(2-oxopyrrolidin-3-yl)pent-2-enoate

> <PUBCHEM_IUPAC_SYSTEMATIC_NAME>
(phenylmethyl) (E)-4-[2-[3-[(5-methyl-1,2-oxazol-3-yl)carbonylamino]-2-oxidanylidene-pyridin-1-yl]ethanoylamino]-5-(2-oxidanylidenepyrrolidin-3-yl)pent-2-enoate

> <PUBCHEM_IUPAC_TRADITIONAL_NAME>
(E)-4-[[2-[2-keto-3-[(5-methylisoxazole-3-carbonyl)amino]-1-pyridyl]acetyl]amino]-5-(2-ketopyrrolidin-3-yl)pent-2-enoic acid benzyl ester

> <PUBCHEM_IUPAC_INCHI>
InChI=1S/C28H29N5O7/c1-18-14-23(32-40-18)27(37)31-22-8-5-13-33(28(22)38)16-24(34)30-21(15-20-11-12-29-26(20)36)9-10-25(35)39-17-19-6-3-2-4-7-19/h2-10,13-14,20-21H,11-12,15-17H2,1H3,(H,29,36)(H,30,34)(H,31,37)/b10-9+

> <PUBCHEM_IUPAC_INCHIKEY>
PWHIIUXVOBFFHT-MDZDMXLPSA-N

> <PUBCHEM_XLOGP3_AA>
1.4

> <PUBCHEM_EXACT_MASS>
547.206698

> <PUBCHEM_MOLECULAR_FORMULA>
C28H29N5O7

> <PUBCHEM_MOLECULAR_WEIGHT>
547.6

> <PUBCHEM_OPENEYE_CAN_SMILES>
CC1=CC(=NO1)C(=O)NC2=CC=CN(C2=O)CC(=O)NC(CC3CCNC3=O)C=CC(=O)OCC4=CC=CC=C4

> <PUBCHEM_OPENEYE_ISO_SMILES>
CC1=CC(=NO1)C(=O)NC2=CC=CN(C2=O)CC(=O)NC(CC3CCNC3=O)/C=C/C(=O)OCC4=CC=CC=C4

> <PUBCHEM_CACTVS_TPSA>
160

> <PUBCHEM_MONOISOTOPIC_WEIGHT>
547.206698

> <PUBCHEM_TOTAL_CHARGE>
0

> <PUBCHEM_HEAVY_ATOM_COUNT>
40

> <PUBCHEM_ATOM_DEF_STEREO_COUNT>
0

> <PUBCHEM_ATOM_UDEF_STEREO_COUNT>
2

> <PUBCHEM_BOND_DEF_STEREO_COUNT>
1

> <PUBCHEM_BOND_UDEF_STEREO_COUNT>
0

> <PUBCHEM_ISOTOPIC_ATOM_COUNT>
0

> <PUBCHEM_COMPONENT_COUNT>
1

> <PUBCHEM_CACTVS_TAUTO_COUNT>
-1

> <PUBCHEM_COORDINATE_TYPE>
1
5
255

> <PUBCHEM_BONDANNOTATIONS>
10  24  8
10  25  8
12  34  8
13  15  3
17  15  3
24  26  8
25  27  8
26  28  8
27  28  8
30  32  8
30  33  8
32  35  8
33  36  8
34  37  8
35  38  8
36  38  8
37  39  8
7  12  8
7  39  8

$$$$
142066941
  -OEChem-02212016592D

 91 92  0     1  0  0  0  0  0999 V2000
    9.3411    4.6200    0.0000 F   0  0  0  0  0  0  0  0  0  0  0  0
   11.7194    8.1200    0.0000 O   0  0  0  0  0  0  0  0  0  0  0  0
    8.6772    7.0812    0.0000 O   0  0  0  0  0  0  0  0  0  0  0  0
   10.6259   11.7837    0.0000 O   0  0  0  0  0  0  0  0  0  0  0  0
   10.3985    6.6200    0.0000 O   0  0  0  0  0  0  0  0  0  0  0  0
    7.1618   12.7837    0.0000 O   0  0  0  0  0  0  0  0  0  0  0  0
    8.0279   16.2837    0.0000 O   0  0  0  0  0  0  0  0  0  0  0  0
    4.7131   16.6201    0.0000 O   0  0  0  0  0  0  0  0  0  0  0  0
   13.4407    8.5812    0.0000 N   0  0  0  0  0  0  0  0  0  0  0  0
    9.7599   10.2837    0.0000 N   0  0  0  0  0  0  0  0  0  0  0  0
    8.8939   12.7837    0.0000 N   0  0  0  0  0  0  0  0  0  0  0  0
    7.1618   14.7837    0.0000 N   0  0  0  0  0  0  0  0  0  0  0  0
    5.3823   15.8769    0.0000 N   0  0  0  0  0  0  0  0  0  0  0  0
   12.3580    9.7836    0.0000 C   0  0  3  0  0  0  0  0  0  0  0  0
   11.4920   10.2837    0.0000 C   0  0  0  0  0  0  0  0  0  0  0  0
   13.2715   10.1904    0.0000 C   0  0  0  0  0  0  0  0  0  0  0  0
   10.6259    9.7836    0.0000 C   0  0  3  0  0  0  0  0  0  0  0  0
   13.9407    9.4472    0.0000 C   0  0  0  0  0  0  0  0  0  0  0  0
   12.4625    8.7891    0.0000 C   0  0  0  0  0  0  0  0  0  0  0  0
   10.6259    8.7836    0.0000 C   0  0  0  0  0  0  0  0  0  0  0  0
    9.7599    8.2836    0.0000 C   0  0  0  0  0  0  0  0  0  0  0  0
    8.8464    8.6904    0.0000 C   0  0  0  0  0  0  0  0  0  0  0  0
    9.7599   11.2837    0.0000 C   0  0  0  0  0  0  0  0  0  0  0  0
    8.1772    7.9472    0.0000 C   0  0  0  0  0  0  0  0  0  0  0  0
    9.6554    7.2891    0.0000 C   0  0  0  0  0  0  0  0  0  0  0  0
    8.8939   11.7837    0.0000 C   0  0  0  0  0  0  0  0  0  0  0  0
    8.0279   13.2837    0.0000 C   0  0  0  0  0  0  0  0  0  0  0  0
    9.7599   13.2837    0.0000 C   0  0  0  0  0  0  0  0  0  0  0  0
    8.0279   14.2837    0.0000 C   0  0  0  0  0  0  0  0  0  0  0  0
    9.7599   14.2837    0.0000 C   0  0  0  0  0  0  0  0  0  0  0  0
    8.8939   14.7837    0.0000 C   0  0  0  0  0  0  0  0  0  0  0  0
    7.1618   15.7837    0.0000 C   0  0  0  0  0  0  0  0  0  0  0  0
    6.2958   16.2837    0.0000 C   0  0  0  0  0  0  0  0  0  0  0  0
    6.1913   17.2782    0.0000 C   0  0  0  0  0  0  0  0  0  0  0  0
    5.2131   17.4861    0.0000 C   0  0  0  0  0  0  0  0  0  0  0  0
    4.8064   18.3996    0.0000 C   0  0  0  0  0  0  0  0  0  0  0  0
    9.3411    1.6200    0.0000 C   0  0  0  0  0  0  0  0  0  0  0  0
    8.4751    2.1200    0.0000 C   0  0  0  0  0  0  0  0  0  0  0  0
   10.2072    2.1200    0.0000 C   0  0  0  0  0  0  0  0  0  0  0  0
    9.3411    0.6200    0.0000 C   0  0  0  0  0  0  0  0  0  0  0  0
    8.4751    3.1200    0.0000 C   0  0  0  0  0  0  0  0  0  0  0  0
   10.2072    3.1200    0.0000 C   0  0  0  0  0  0  0  0  0  0  0  0
    9.3411    3.6200    0.0000 C   0  0  0  0  0  0  0  0  0  0  0  0
   17.0623    9.4830    0.0000 C   0  0  0  0  0  0  0  0  0  0  0  0
   18.0623    9.4830    0.0000 C   0  0  0  0  0  0  0  0  0  0  0  0
    0.6200    9.4830    0.0000 C   0  0  0  0  0  0  0  0  0  0  0  0
    1.6200    9.4830    0.0000 C   0  0  0  0  0  0  0  0  0  0  0  0
   11.8380    9.4460    0.0000 H   0  0  0  0  0  0  0  0  0  0  0  0
   11.8905   10.7586    0.0000 H   0  0  0  0  0  0  0  0  0  0  0  0
   11.0934   10.7586    0.0000 H   0  0  0  0  0  0  0  0  0  0  0  0
   13.7731   10.5548    0.0000 H   0  0  0  0  0  0  0  0  0  0  0  0
   12.9615   10.7273    0.0000 H   0  0  0  0  0  0  0  0  0  0  0  0
   10.0890    9.4736    0.0000 H   0  0  0  0  0  0  0  0  0  0  0  0
   14.4423    9.0828    0.0000 H   0  0  0  0  0  0  0  0  0  0  0  0
   14.3555    9.9080    0.0000 H   0  0  0  0  0  0  0  0  0  0  0  0
   13.6928    8.0148    0.0000 H   0  0  0  0  0  0  0  0  0  0  0  0
   11.1629    8.4736    0.0000 H   0  0  0  0  0  0  0  0  0  0  0  0
    9.2230    9.9736    0.0000 H   0  0  0  0  0  0  0  0  0  0  0  0
    9.1564    9.2273    0.0000 H   0  0  0  0  0  0  0  0  0  0  0  0
    8.3448    9.0548    0.0000 H   0  0  0  0  0  0  0  0  0  0  0  0
    7.7624    8.4080    0.0000 H   0  0  0  0  0  0  0  0  0  0  0  0
    7.6756    7.5828    0.0000 H   0  0  0  0  0  0  0  0  0  0  0  0
    8.2833   11.8913    0.0000 H   0  0  0  0  0  0  0  0  0  0  0  0
    8.6818   11.2010    0.0000 H   0  0  0  0  0  0  0  0  0  0  0  0
   10.2969   12.9737    0.0000 H   0  0  0  0  0  0  0  0  0  0  0  0
   10.2969   14.5937    0.0000 H   0  0  0  0  0  0  0  0  0  0  0  0
    8.8939   15.4037    0.0000 H   0  0  0  0  0  0  0  0  0  0  0  0
    6.6249   14.4737    0.0000 H   0  0  0  0  0  0  0  0  0  0  0  0
    6.6520   17.6930    0.0000 H   0  0  0  0  0  0  0  0  0  0  0  0
    5.3728   18.6518    0.0000 H   0  0  0  0  0  0  0  0  0  0  0  0
    4.5542   18.9660    0.0000 H   0  0  0  0  0  0  0  0  0  0  0  0
    4.2400   18.1475    0.0000 H   0  0  0  0  0  0  0  0  0  0  0  0
    7.9382    1.8100    0.0000 H   0  0  0  0  0  0  0  0  0  0  0  0
   10.7441    1.8100    0.0000 H   0  0  0  0  0  0  0  0  0  0  0  0
    8.7211    0.6200    0.0000 H   0  0  0  0  0  0  0  0  0  0  0  0
    9.3411    0.0000    0.0000 H   0  0  0  0  0  0  0  0  0  0  0  0
    9.9611    0.6200    0.0000 H   0  0  0  0  0  0  0  0  0  0  0  0
    7.9382    3.4300    0.0000 H   0  0  0  0  0  0  0  0  0  0  0  0
   10.7441    3.4300    0.0000 H   0  0  0  0  0  0  0  0  0  0  0  0
   17.0623   10.1030    0.0000 H   0  0  0  0  0  0  0  0  0  0  0  0
   16.4423    9.4830    0.0000 H   0  0  0  0  0  0  0  0  0  0  0  0
   17.0623    8.8630    0.0000 H   0  0  0  0  0  0  0  0  0  0  0  0
   18.0623    8.8630    0.0000 H   0  0  0  0  0  0  0  0  0  0  0  0
   18.6823    9.4830    0.0000 H   0  0  0  0  0  0  0  0  0  0  0  0
   18.0623   10.1030    0.0000 H   0  0  0  0  0  0  0  0  0  0  0  0
    0.6200   10.1030    0.0000 H   0  0  0  0  0  0  0  0  0  0  0  0
    0.0000    9.4830    0.0000 H   0  0  0  0  0  0  0  0  0  0  0  0
    0.6200    8.8630    0.0000 H   0  0  0  0  0  0  0  0  0  0  0  0
    1.6200    8.8630    0.0000 H   0  0  0  0  0  0  0  0  0  0  0  0
    2.2400    9.4830    0.0000 H   0  0  0  0  0  0  0  0  0  0  0  0
    1.6200   10.1030    0.0000 H   0  0  0  0  0  0  0  0  0  0  0  0
  1 43  1  0  0  0  0
  2 19  2  0  0  0  0
  3 24  1  0  0  0  0
  3 25  1  0  0  0  0
  4 23  2  0  0  0  0
  5 25  2  0  0  0  0
  6 27  2  0  0  0  0
  7 32  2  0  0  0  0
  8 13  1  0  0  0  0
  8 35  1  0  0  0  0
  9 18  1  0  0  0  0
  9 19  1  0  0  0  0
  9 56  1  0  0  0  0
 10 17  1  0  0  0  0
 10 23  1  0  0  0  0
 10 58  1  0  0  0  0
 11 26  1  0  0  0  0
 11 27  1  0  0  0  0
 11 28  1  0  0  0  0
 12 29  1  0  0  0  0
 12 32  1  0  0  0  0
 12 68  1  0  0  0  0
 13 33  2  0  0  0  0
 14 15  1  0  0  0  0
 14 16  1  0  0  0  0
 14 19  1  0  0  0  0
 14 48  1  0  0  0  0
 15 17  1  0  0  0  0
 15 49  1  0  0  0  0
 15 50  1  0  0  0  0
 16 18  1  0  0  0  0
 16 51  1  0  0  0  0
 16 52  1  0  0  0  0
 17 20  1  0  0  0  0
 17 53  1  0  0  0  0
 18 54  1  0  0  0  0
 18 55  1  0  0  0  0
 20 21  2  0  0  0  0
 20 57  1  0  0  0  0
 21 22  1  0  0  0  0
 21 25  1  0  0  0  0
 22 24  1  0  0  0  0
 22 59  1  0  0  0  0
 22 60  1  0  0  0  0
 23 26  1  0  0  0  0
 24 61  1  0  0  0  0
 24 62  1  0  0  0  0
 26 63  1  0  0  0  0
 26 64  1  0  0  0  0
 27 29  1  0  0  0  0
 28 30  2  0  0  0  0
 28 65  1  0  0  0  0
 29 31  2  0  0  0  0
 30 31  1  0  0  0  0
 30 66  1  0  0  0  0
 31 67  1  0  0  0  0
 32 33  1  0  0  0  0
 33 34  1  0  0  0  0
 34 35  2  0  0  0  0
 34 69  1  0  0  0  0
 35 36  1  0  0  0  0
 36 70  1  0  0  0  0
 36 71  1  0  0  0  0
 36 72  1  0  0  0  0
 37 38  2  0  0  0  0
 37 39  1  0  0  0  0
 37 40  1  0  0  0  0
 38 41  1  0  0  0  0
 38 73  1  0  0  0  0
 39 42  2  0  0  0  0
 39 74  1  0  0  0  0
 40 75  1  0  0  0  0
 40 76  1  0  0  0  0
 40 77  1  0  0  0  0
 41 43  2  0  0  0  0
 41 78  1  0  0  0  0
 42 43  1  0  0  0  0
 42 79  1  0  0  0  0
 44 45  1  0  0  0  0
 44 80  1  0  0  0  0
 44 81  1  0  0  0  0
 44 82  1  0  0  0  0
 45 83  1  0  0  0  0
 45 84  1  0  0  0  0
 45 85  1  0  0  0  0
 46 47  1  0  0  0  0
 46 86  1  0  0  0  0
 46 87  1  0  0  0  0
 46 88  1  0  0  0  0
 47 89  1  0  0  0  0
 47 90  1  0  0  0  0
 47 91  1  0  0  0  0
M  END
> <PUBCHEM_COMPOUND_CID>
142066941

> <PUBCHEM_COMPOUND_CANONICALIZED>
1

> <PUBCHEM_CACTVS_COMPLEXITY>
1070

> <PUBCHEM_CACTVS_HBOND_ACCEPTOR>
9

> <PUBCHEM_CACTVS_HBOND_DONOR>
3

> <PUBCHEM_CACTVS_ROTATABLE_BOND>
8

> <PUBCHEM_CACTVS_SUBSKEYS>
AAADcfB/uQAAAAAAAAAAAAAAAAAAAWLEgAAwQAAAAAAAAAABwAAAHwAUAAAADSzhng4yjJPQBACpA6X2WgCCAAAmIgAomKG+bNoIZjqAtbOWMYhm1hiI6cc/gAAOAAAAAAAAAAAAAAAAAAAAAAAAAAAAAA==

> <PUBCHEM_IUPAC_OPENEYE_NAME>
ethane;1-fluoro-4-methyl-benzene;5-methyl-N-[2-oxo-1-[2-oxo-2-[[(2E)-1-[(2-oxopyrrolidin-3-yl)methyl]-2-(2-oxotetrahydrofuran-3-ylidene)ethyl]amino]ethyl]-3-pyridyl]isoxazole-3-carboxamide

> <PUBCHEM_IUPAC_CAS_NAME>
ethane;1-fluoro-4-methylbenzene;5-methyl-N-[2-oxo-1-[2-oxo-2-[[(1E)-1-(2-oxo-3-oxolanylidene)-3-(2-oxo-3-pyrrolidinyl)propan-2-yl]amino]ethyl]-3-pyridinyl]-3-isoxazolecarboxamide

> <PUBCHEM_IUPAC_NAME_MARKUP>
ethane;1-fluoro-4-methylbenzene;5-methyl-<I>N</I>-[2-oxo-1-[2-oxo-2-[[(1<I>E</I>)-1-(2-oxooxolan-3-ylidene)-3-(2-oxopyrrolidin-3-yl)propan-2-yl]amino]ethyl]pyridin-3-yl]-1,2-oxazole-3-carboxamide

> <PUBCHEM_IUPAC_NAME>
ethane;1-fluoro-4-methylbenzene;5-methyl-N-[2-oxo-1-[2-oxo-2-[[(1E)-1-(2-oxooxolan-3-ylidene)-3-(2-oxopyrrolidin-3-yl)propan-2-yl]amino]ethyl]pyridin-3-yl]-1,2-oxazole-3-carboxamide

> <PUBCHEM_IUPAC_SYSTEMATIC_NAME>
ethane;1-fluoranyl-4-methyl-benzene;5-methyl-N-[2-oxidanylidene-1-[2-oxidanylidene-2-[[(1E)-1-(2-oxidanylideneoxolan-3-ylidene)-3-(2-oxidanylidenepyrrolidin-3-yl)propan-2-yl]amino]ethyl]pyridin-3-yl]-1,2-oxazole-3-carboxamide

> <PUBCHEM_IUPAC_TRADITIONAL_NAME>
ethane;1-fluoro-4-methyl-benzene;N-[2-keto-1-[2-keto-2-[[(2E)-1-[(2-ketopyrrolidin-3-yl)methyl]-2-(2-ketotetrahydrofuran-3-ylidene)ethyl]amino]ethyl]-3-pyridyl]-5-methyl-isoxazole-3-carboxamide

> <PUBCHEM_IUPAC_INCHI>
InChI=1S/C23H25N5O7.C7H7F.2C2H6/c1-13-9-18(27-35-13)21(31)26-17-3-2-7-28(22(17)32)12-19(29)25-16(10-14-4-6-24-20(14)30)11-15-5-8-34-23(15)33;1-6-2-4-7(8)5-3-6;2*1-2/h2-3,7,9,11,14,16H,4-6,8,10,12H2,1H3,(H,24,30)(H,25,29)(H,26,31);2-5H,1H3;2*1-2H3/b15-11+;;;

> <PUBCHEM_IUPAC_INCHIKEY>
CQZJYEDXIDBABZ-AKHNGERGSA-N

> <PUBCHEM_EXACT_MASS>
653.322477

> <PUBCHEM_MOLECULAR_FORMULA>
C34H44FN5O7

> <PUBCHEM_MOLECULAR_WEIGHT>
653.7

> <PUBCHEM_OPENEYE_CAN_SMILES>
CC.CC.CC1=CC=C(C=C1)F.CC1=CC(=NO1)C(=O)NC2=CC=CN(C2=O)CC(=O)NC(CC3CCNC3=O)C=C4CCOC4=O

> <PUBCHEM_OPENEYE_ISO_SMILES>
CC.CC.CC1=CC=C(C=C1)F.CC1=CC(=NO1)C(=O)NC2=CC=CN(C2=O)CC(=O)NC(CC3CCNC3=O)/C=C/4\CCOC4=O

> <PUBCHEM_CACTVS_TPSA>
160

> <PUBCHEM_MONOISOTOPIC_WEIGHT>
653.322477

> <PUBCHEM_TOTAL_CHARGE>
0

> <PUBCHEM_HEAVY_ATOM_COUNT>
47

> <PUBCHEM_ATOM_DEF_STEREO_COUNT>
0

> <PUBCHEM_ATOM_UDEF_STEREO_COUNT>
2

> <PUBCHEM_BOND_DEF_STEREO_COUNT>
1

> <PUBCHEM_BOND_UDEF_STEREO_COUNT>
0

> <PUBCHEM_ISOTOPIC_ATOM_COUNT>
0

> <PUBCHEM_COMPONENT_COUNT>
4

> <PUBCHEM_CACTVS_TAUTO_COUNT>
-1

> <PUBCHEM_COORDINATE_TYPE>
1
5
255

> <PUBCHEM_BONDANNOTATIONS>
11  27  8
11  28  8
13  33  8
14  15  3
17  15  3
27  29  8
28  30  8
29  31  8
30  31  8
33  34  8
34  35  8
37  38  8
37  39  8
38  41  8
39  42  8
41  43  8
42  43  8
8  13  8
8  35  8

$$$$
142066954
  -OEChem-02212016592D

 81 84  0     1  0  0  0  0  0999 V2000
   13.9343    9.3275    0.0000 F   0  0  0  0  0  0  0  0  0  0  0  0
   12.2023    8.3275    0.0000 F   0  0  0  0  0  0  0  0  0  0  0  0
    4.6539    2.8526    0.0000 O   0  0  0  0  0  0  0  0  0  0  0  0
    7.4794    4.1890    0.0000 O   0  0  0  0  0  0  0  0  0  0  0  0
    6.3859    2.8526    0.0000 O   0  0  0  0  0  0  0  0  0  0  0  0
    6.3859    7.8526    0.0000 O   0  0  0  0  0  0  0  0  0  0  0  0
    2.9218    8.8526    0.0000 O   0  0  0  0  0  0  0  0  0  0  0  0
    3.7879   12.3526    0.0000 O   0  0  0  0  0  0  0  0  0  0  0  0
    0.4731   12.6890    0.0000 O   0  0  0  0  0  0  0  0  0  0  0  0
    9.2007    4.6502    0.0000 N   0  0  0  0  0  0  0  0  0  0  0  0
    5.5199    6.3526    0.0000 N   0  0  0  0  0  0  0  0  0  0  0  0
    4.6539    8.8526    0.0000 N   0  0  0  0  0  0  0  0  0  0  0  0
    2.9218   10.8526    0.0000 N   0  0  0  0  0  0  0  0  0  0  0  0
    1.1423   11.9459    0.0000 N   0  0  0  0  0  0  0  0  0  0  0  0
    4.6539    1.8526    0.0000 C   0  0  0  0  0  0  0  0  0  0  0  0
    3.9468    1.1455    0.0000 C   0  0  0  0  0  0  0  0  0  0  0  0
    5.3610    1.1455    0.0000 C   0  0  0  0  0  0  0  0  0  0  0  0
    4.6539    0.4384    0.0000 C   0  0  0  0  0  0  0  0  0  0  0  0
    8.1180    5.8526    0.0000 C   0  0  3  0  0  0  0  0  0  0  0  0
    7.2520    6.3526    0.0000 C   0  0  0  0  0  0  0  0  0  0  0  0
    9.0315    6.2594    0.0000 C   0  0  0  0  0  0  0  0  0  0  0  0
    6.3859    5.8526    0.0000 C   0  0  1  0  0  0  0  0  0  0  0  0
    9.7007    5.5162    0.0000 C   0  0  0  0  0  0  0  0  0  0  0  0
    8.2225    4.8581    0.0000 C   0  0  0  0  0  0  0  0  0  0  0  0
    6.3859    4.8526    0.0000 C   0  0  0  0  0  0  0  0  0  0  0  0
    5.5199    3.3526    0.0000 C   0  0  0  0  0  0  0  0  0  0  0  0
    5.5199    4.3526    0.0000 C   0  0  0  0  0  0  0  0  0  0  0  0
    5.5199    7.3526    0.0000 C   0  0  0  0  0  0  0  0  0  0  0  0
    4.6539    7.8526    0.0000 C   0  0  0  0  0  0  0  0  0  0  0  0
    3.7879    9.3526    0.0000 C   0  0  0  0  0  0  0  0  0  0  0  0
    5.5199    9.3526    0.0000 C   0  0  0  0  0  0  0  0  0  0  0  0
    3.7879   10.3526    0.0000 C   0  0  0  0  0  0  0  0  0  0  0  0
    5.5199   10.3526    0.0000 C   0  0  0  0  0  0  0  0  0  0  0  0
    4.6539   10.8526    0.0000 C   0  0  0  0  0  0  0  0  0  0  0  0
    2.9218   11.8526    0.0000 C   0  0  0  0  0  0  0  0  0  0  0  0
    2.0558   12.3526    0.0000 C   0  0  0  0  0  0  0  0  0  0  0  0
    1.9513   13.3471    0.0000 C   0  0  0  0  0  0  0  0  0  0  0  0
    0.9731   13.5551    0.0000 C   0  0  0  0  0  0  0  0  0  0  0  0
    0.5664   14.4686    0.0000 C   0  0  0  0  0  0  0  0  0  0  0  0
   14.8003    6.8275    0.0000 C   0  0  0  0  0  0  0  0  0  0  0  0
   14.8003    7.8275    0.0000 C   0  0  0  0  0  0  0  0  0  0  0  0
   13.9343    6.3275    0.0000 C   0  0  0  0  0  0  0  0  0  0  0  0
   15.6664    6.3275    0.0000 C   0  0  0  0  0  0  0  0  0  0  0  0
   13.9343    8.3275    0.0000 C   0  0  0  0  0  0  0  0  0  0  0  0
   13.0683    6.8275    0.0000 C   0  0  0  0  0  0  0  0  0  0  0  0
   13.0683    7.8275    0.0000 C   0  0  0  0  0  0  0  0  0  0  0  0
    4.0811    2.0899    0.0000 H   0  0  0  0  0  0  0  0  0  0  0  0
    3.5084    1.5839    0.0000 H   0  0  0  0  0  0  0  0  0  0  0  0
    3.5084    0.7071    0.0000 H   0  0  0  0  0  0  0  0  0  0  0  0
    5.7994    0.7071    0.0000 H   0  0  0  0  0  0  0  0  0  0  0  0
    5.7994    1.5839    0.0000 H   0  0  0  0  0  0  0  0  0  0  0  0
    4.2155    0.0000    0.0000 H   0  0  0  0  0  0  0  0  0  0  0  0
    5.0923    0.0000    0.0000 H   0  0  0  0  0  0  0  0  0  0  0  0
    7.5980    5.5149    0.0000 H   0  0  0  0  0  0  0  0  0  0  0  0
    7.6505    6.8276    0.0000 H   0  0  0  0  0  0  0  0  0  0  0  0
    6.8534    6.8276    0.0000 H   0  0  0  0  0  0  0  0  0  0  0  0
    9.5331    6.6238    0.0000 H   0  0  0  0  0  0  0  0  0  0  0  0
    8.7215    6.7963    0.0000 H   0  0  0  0  0  0  0  0  0  0  0  0
    5.8490    5.5426    0.0000 H   0  0  0  0  0  0  0  0  0  0  0  0
   10.2023    5.1518    0.0000 H   0  0  0  0  0  0  0  0  0  0  0  0
   10.1155    5.9770    0.0000 H   0  0  0  0  0  0  0  0  0  0  0  0
    9.4528    4.0838    0.0000 H   0  0  0  0  0  0  0  0  0  0  0  0
    6.9229    4.5426    0.0000 H   0  0  0  0  0  0  0  0  0  0  0  0
    4.9830    6.0426    0.0000 H   0  0  0  0  0  0  0  0  0  0  0  0
    4.9830    4.6626    0.0000 H   0  0  0  0  0  0  0  0  0  0  0  0
    4.0433    7.9603    0.0000 H   0  0  0  0  0  0  0  0  0  0  0  0
    4.4418    7.2700    0.0000 H   0  0  0  0  0  0  0  0  0  0  0  0
    6.0568    9.0426    0.0000 H   0  0  0  0  0  0  0  0  0  0  0  0
    6.0568   10.6626    0.0000 H   0  0  0  0  0  0  0  0  0  0  0  0
    4.6539   11.4726    0.0000 H   0  0  0  0  0  0  0  0  0  0  0  0
    2.3849   10.5426    0.0000 H   0  0  0  0  0  0  0  0  0  0  0  0
    2.4120   13.7620    0.0000 H   0  0  0  0  0  0  0  0  0  0  0  0
    1.1328   14.7208    0.0000 H   0  0  0  0  0  0  0  0  0  0  0  0
    0.3142   15.0350    0.0000 H   0  0  0  0  0  0  0  0  0  0  0  0
    0.0000   14.2164    0.0000 H   0  0  0  0  0  0  0  0  0  0  0  0
   15.3373    8.1375    0.0000 H   0  0  0  0  0  0  0  0  0  0  0  0
   13.9343    5.7075    0.0000 H   0  0  0  0  0  0  0  0  0  0  0  0
   15.3564    5.7906    0.0000 H   0  0  0  0  0  0  0  0  0  0  0  0
   16.2033    6.0175    0.0000 H   0  0  0  0  0  0  0  0  0  0  0  0
   15.9764    6.8644    0.0000 H   0  0  0  0  0  0  0  0  0  0  0  0
   12.5313    6.5175    0.0000 H   0  0  0  0  0  0  0  0  0  0  0  0
  1 44  1  0  0  0  0
  2 46  1  0  0  0  0
  3 15  1  0  0  0  0
  3 26  1  0  0  0  0
  4 24  2  0  0  0  0
  5 26  2  0  0  0  0
  6 28  2  0  0  0  0
  7 30  2  0  0  0  0
  8 35  2  0  0  0  0
  9 14  1  0  0  0  0
  9 38  1  0  0  0  0
 10 23  1  0  0  0  0
 10 24  1  0  0  0  0
 10 62  1  0  0  0  0
 22 11  1  1  0  0  0
 11 28  1  0  0  0  0
 11 64  1  0  0  0  0
 12 29  1  0  0  0  0
 12 30  1  0  0  0  0
 12 31  1  0  0  0  0
 13 32  1  0  0  0  0
 13 35  1  0  0  0  0
 13 71  1  0  0  0  0
 14 36  2  0  0  0  0
 15 16  1  0  0  0  0
 15 17  1  0  0  0  0
 15 47  1  0  0  0  0
 16 18  1  0  0  0  0
 16 48  1  0  0  0  0
 16 49  1  0  0  0  0
 17 18  1  0  0  0  0
 17 50  1  0  0  0  0
 17 51  1  0  0  0  0
 18 52  1  0  0  0  0
 18 53  1  0  0  0  0
 19 20  1  0  0  0  0
 19 21  1  0  0  0  0
 19 24  1  0  0  0  0
 19 54  1  0  0  0  0
 20 22  1  0  0  0  0
 20 55  1  0  0  0  0
 20 56  1  0  0  0  0
 21 23  1  0  0  0  0
 21 57  1  0  0  0  0
 21 58  1  0  0  0  0
 22 25  1  0  0  0  0
 22 59  1  0  0  0  0
 23 60  1  0  0  0  0
 23 61  1  0  0  0  0
 25 27  2  0  0  0  0
 25 63  1  0  0  0  0
 26 27  1  0  0  0  0
 27 65  1  0  0  0  0
 28 29  1  0  0  0  0
 29 66  1  0  0  0  0
 29 67  1  0  0  0  0
 30 32  1  0  0  0  0
 31 33  2  0  0  0  0
 31 68  1  0  0  0  0
 32 34  2  0  0  0  0
 33 34  1  0  0  0  0
 33 69  1  0  0  0  0
 34 70  1  0  0  0  0
 35 36  1  0  0  0  0
 36 37  1  0  0  0  0
 37 38  2  0  0  0  0
 37 72  1  0  0  0  0
 38 39  1  0  0  0  0
 39 73  1  0  0  0  0
 39 74  1  0  0  0  0
 39 75  1  0  0  0  0
 40 41  2  0  0  0  0
 40 42  1  0  0  0  0
 40 43  1  0  0  0  0
 41 44  1  0  0  0  0
 41 76  1  0  0  0  0
 42 45  2  0  0  0  0
 42 77  1  0  0  0  0
 43 78  1  0  0  0  0
 43 79  1  0  0  0  0
 43 80  1  0  0  0  0
 44 46  2  0  0  0  0
 45 46  1  0  0  0  0
 45 81  1  0  0  0  0
M  END
> <PUBCHEM_COMPOUND_CID>
142066954

> <PUBCHEM_COMPOUND_CANONICALIZED>
1

> <PUBCHEM_CACTVS_COMPLEXITY>
1110

> <PUBCHEM_CACTVS_HBOND_ACCEPTOR>
10

> <PUBCHEM_CACTVS_HBOND_DONOR>
3

> <PUBCHEM_CACTVS_ROTATABLE_BOND>
11

> <PUBCHEM_CACTVS_SUBSKEYS>
AAADcfB/uYAAAAAAAAAAAAAAAABgAWLAAAAwQAAAAAAAAAABwAAAHwAUAAAADTzhng4yjJPQBACpA6X2WgCCAAAmIgAomKG+bNoIZjqAtbOWMYhmlhiI6cc/gAAOAAAAAAAAAAAAAAAAAAAAAAAAAAAAAA==

> <PUBCHEM_IUPAC_OPENEYE_NAME>
cyclobutyl (E,4S)-4-[[2-[3-[(5-methylisoxazole-3-carbonyl)amino]-2-oxo-1-pyridyl]acetyl]amino]-5-(2-oxopyrrolidin-3-yl)pent-2-enoate;1,2-difluoro-4-methyl-benzene

> <PUBCHEM_IUPAC_CAS_NAME>
1,2-difluoro-4-methylbenzene;(E,4S)-4-[[2-[3-[[(5-methyl-3-isoxazolyl)-oxomethyl]amino]-2-oxo-1-pyridinyl]-1-oxoethyl]amino]-5-(2-oxo-3-pyrrolidinyl)-2-pentenoic acid cyclobutyl ester

> <PUBCHEM_IUPAC_NAME_MARKUP>
cyclobutyl (<I>E</I>,4<I>S</I>)-4-[[2-[3-[(5-methyl-1,2-oxazole-3-carbonyl)amino]-2-oxopyridin-1-yl]acetyl]amino]-5-(2-oxopyrrolidin-3-yl)pent-2-enoate;1,2-difluoro-4-methylbenzene

> <PUBCHEM_IUPAC_NAME>
cyclobutyl (E,4S)-4-[[2-[3-[(5-methyl-1,2-oxazole-3-carbonyl)amino]-2-oxopyridin-1-yl]acetyl]amino]-5-(2-oxopyrrolidin-3-yl)pent-2-enoate;1,2-difluoro-4-methylbenzene

> <PUBCHEM_IUPAC_SYSTEMATIC_NAME>
1,2-bis(fluoranyl)-4-methyl-benzene;cyclobutyl (E,4S)-4-[2-[3-[(5-methyl-1,2-oxazol-3-yl)carbonylamino]-2-oxidanylidene-pyridin-1-yl]ethanoylamino]-5-(2-oxidanylidenepyrrolidin-3-yl)pent-2-enoate

> <PUBCHEM_IUPAC_TRADITIONAL_NAME>
1,2-difluoro-4-methyl-benzene;(E,4S)-4-[[2-[2-keto-3-[(5-methylisoxazole-3-carbonyl)amino]-1-pyridyl]acetyl]amino]-5-(2-ketopyrrolidin-3-yl)pent-2-enoic acid cyclobutyl ester

> <PUBCHEM_IUPAC_INCHI>
InChI=1S/C25H29N5O7.C7H6F2/c1-15-12-20(29-37-15)24(34)28-19-6-3-11-30(25(19)35)14-21(31)27-17(13-16-9-10-26-23(16)33)7-8-22(32)36-18-4-2-5-18;1-5-2-3-6(8)7(9)4-5/h3,6-8,11-12,16-18H,2,4-5,9-10,13-14H2,1H3,(H,26,33)(H,27,31)(H,28,34);2-4H,1H3/b8-7+;/t16?,17-;/m1./s1

> <PUBCHEM_IUPAC_INCHIKEY>
GEJPHAMUPXURMF-ZXNYFROPSA-N

> <PUBCHEM_EXACT_MASS>
639.250455

> <PUBCHEM_MOLECULAR_FORMULA>
C32H35F2N5O7

> <PUBCHEM_MOLECULAR_WEIGHT>
639.6

> <PUBCHEM_OPENEYE_CAN_SMILES>
CC1=CC(=C(C=C1)F)F.CC1=CC(=NO1)C(=O)NC2=CC=CN(C2=O)CC(=O)NC(CC3CCNC3=O)C=CC(=O)OC4CCC4

> <PUBCHEM_OPENEYE_ISO_SMILES>
CC1=CC(=C(C=C1)F)F.CC1=CC(=NO1)C(=O)NC2=CC=CN(C2=O)CC(=O)N[C@@H](CC3CCNC3=O)/C=C/C(=O)OC4CCC4

> <PUBCHEM_CACTVS_TPSA>
160

> <PUBCHEM_MONOISOTOPIC_WEIGHT>
639.250455

> <PUBCHEM_TOTAL_CHARGE>
0

> <PUBCHEM_HEAVY_ATOM_COUNT>
46

> <PUBCHEM_ATOM_DEF_STEREO_COUNT>
1

> <PUBCHEM_ATOM_UDEF_STEREO_COUNT>
1

> <PUBCHEM_BOND_DEF_STEREO_COUNT>
1

> <PUBCHEM_BOND_UDEF_STEREO_COUNT>
0

> <PUBCHEM_ISOTOPIC_ATOM_COUNT>
0

> <PUBCHEM_COMPONENT_COUNT>
2

> <PUBCHEM_CACTVS_TAUTO_COUNT>
-1

> <PUBCHEM_COORDINATE_TYPE>
1
5
255

> <PUBCHEM_BONDANNOTATIONS>
22  11  5
12  30  8
12  31  8
14  36  8
19  20  3
30  32  8
31  33  8
32  34  8
33  34  8
36  37  8
37  38  8
40  41  8
40  42  8
41  44  8
42  45  8
44  46  8
45  46  8
9  14  8
9  38  8

$$$$
142066960
  -OEChem-02212016592D

 77 79  0     1  0  0  0  0  0999 V2000
   11.7194    4.9563    0.0000 O   0  0  0  0  0  0  0  0  0  0  0  0
   10.6259    8.6200    0.0000 O   0  0  0  0  0  0  0  0  0  0  0  0
    8.8939    3.6200    0.0000 O   0  0  0  0  0  0  0  0  0  0  0  0
   10.6259    3.6200    0.0000 O   0  0  0  0  0  0  0  0  0  0  0  0
    7.1618    9.6200    0.0000 O   0  0  0  0  0  0  0  0  0  0  0  0
    8.0279   13.1200    0.0000 O   0  0  0  0  0  0  0  0  0  0  0  0
    4.7131   13.4564    0.0000 O   0  0  0  0  0  0  0  0  0  0  0  0
   13.4407    5.4176    0.0000 N   0  0  0  0  0  0  0  0  0  0  0  0
    9.7599    7.1200    0.0000 N   0  0  0  0  0  0  0  0  0  0  0  0
    8.8939    9.6200    0.0000 N   0  0  0  0  0  0  0  0  0  0  0  0
    7.1618   11.6200    0.0000 N   0  0  0  0  0  0  0  0  0  0  0  0
    5.3823   12.7133    0.0000 N   0  0  0  0  0  0  0  0  0  0  0  0
   12.3580    6.6200    0.0000 C   0  0  1  0  0  0  0  0  0  0  0  0
   13.2715    7.0267    0.0000 C   0  0  0  0  0  0  0  0  0  0  0  0
   11.4920    7.1200    0.0000 C   0  0  0  0  0  0  0  0  0  0  0  0
   13.9407    6.2836    0.0000 C   0  0  0  0  0  0  0  0  0  0  0  0
   10.6259    6.6200    0.0000 C   0  0  1  0  0  0  0  0  0  0  0  0
   12.4625    5.6255    0.0000 C   0  0  0  0  0  0  0  0  0  0  0  0
   10.6259    5.6200    0.0000 C   0  0  0  0  0  0  0  0  0  0  0  0
    9.7599    8.1200    0.0000 C   0  0  0  0  0  0  0  0  0  0  0  0
    9.7599    5.1200    0.0000 C   0  0  0  0  0  0  0  0  0  0  0  0
    8.8939    8.6200    0.0000 C   0  0  0  0  0  0  0  0  0  0  0  0
    9.7599    4.1200    0.0000 C   0  0  0  0  0  0  0  0  0  0  0  0
    8.0279   10.1200    0.0000 C   0  0  0  0  0  0  0  0  0  0  0  0
    9.7599   10.1200    0.0000 C   0  0  0  0  0  0  0  0  0  0  0  0
    8.0279   11.1200    0.0000 C   0  0  0  0  0  0  0  0  0  0  0  0
    9.7599   11.1200    0.0000 C   0  0  0  0  0  0  0  0  0  0  0  0
    8.8939   11.6200    0.0000 C   0  0  0  0  0  0  0  0  0  0  0  0
    8.8939    2.6200    0.0000 C   0  0  0  0  0  0  0  0  0  0  0  0
    8.0279    2.1200    0.0000 C   0  0  0  0  0  0  0  0  0  0  0  0
    7.1618   12.6200    0.0000 C   0  0  0  0  0  0  0  0  0  0  0  0
    8.0279    1.1200    0.0000 C   0  0  0  0  0  0  0  0  0  0  0  0
    7.1618    2.6200    0.0000 C   0  0  0  0  0  0  0  0  0  0  0  0
    6.2958   13.1200    0.0000 C   0  0  0  0  0  0  0  0  0  0  0  0
    7.1618    0.6200    0.0000 C   0  0  0  0  0  0  0  0  0  0  0  0
    6.2958    2.1200    0.0000 C   0  0  0  0  0  0  0  0  0  0  0  0
    6.1913   14.1145    0.0000 C   0  0  0  0  0  0  0  0  0  0  0  0
    6.2958    1.1200    0.0000 C   0  0  0  0  0  0  0  0  0  0  0  0
    5.2131   14.3224    0.0000 C   0  0  0  0  0  0  0  0  0  0  0  0
    4.8064   15.2360    0.0000 C   0  0  0  0  0  0  0  0  0  0  0  0
    0.6200    7.9012    0.0000 C   0  0  0  0  0  0  0  0  0  0  0  0
    1.6200    7.9012    0.0000 C   0  0  0  0  0  0  0  0  0  0  0  0
   11.8380    6.2823    0.0000 H   0  0  0  0  0  0  0  0  0  0  0  0
   13.7731    7.3912    0.0000 H   0  0  0  0  0  0  0  0  0  0  0  0
   12.9615    7.5637    0.0000 H   0  0  0  0  0  0  0  0  0  0  0  0
   11.8905    7.5950    0.0000 H   0  0  0  0  0  0  0  0  0  0  0  0
   11.0934    7.5950    0.0000 H   0  0  0  0  0  0  0  0  0  0  0  0
   14.4423    5.9192    0.0000 H   0  0  0  0  0  0  0  0  0  0  0  0
   14.3555    6.7443    0.0000 H   0  0  0  0  0  0  0  0  0  0  0  0
   10.6259    7.2400    0.0000 H   0  0  0  0  0  0  0  0  0  0  0  0
   13.6928    4.8512    0.0000 H   0  0  0  0  0  0  0  0  0  0  0  0
    9.2230    6.8100    0.0000 H   0  0  0  0  0  0  0  0  0  0  0  0
   11.1629    5.3100    0.0000 H   0  0  0  0  0  0  0  0  0  0  0  0
    9.2230    5.4300    0.0000 H   0  0  0  0  0  0  0  0  0  0  0  0
    8.2833    8.7277    0.0000 H   0  0  0  0  0  0  0  0  0  0  0  0
    8.6818    8.0374    0.0000 H   0  0  0  0  0  0  0  0  0  0  0  0
   10.2968    9.8100    0.0000 H   0  0  0  0  0  0  0  0  0  0  0  0
   10.2968   11.4300    0.0000 H   0  0  0  0  0  0  0  0  0  0  0  0
    8.8939   12.2400    0.0000 H   0  0  0  0  0  0  0  0  0  0  0  0
    9.1059    2.0374    0.0000 H   0  0  0  0  0  0  0  0  0  0  0  0
    9.5045    2.7277    0.0000 H   0  0  0  0  0  0  0  0  0  0  0  0
    6.6249   11.3100    0.0000 H   0  0  0  0  0  0  0  0  0  0  0  0
    8.5648    0.8100    0.0000 H   0  0  0  0  0  0  0  0  0  0  0  0
    7.1618    3.2400    0.0000 H   0  0  0  0  0  0  0  0  0  0  0  0
    7.1618    0.0000    0.0000 H   0  0  0  0  0  0  0  0  0  0  0  0
    5.7589    2.4300    0.0000 H   0  0  0  0  0  0  0  0  0  0  0  0
    6.6520   14.5294    0.0000 H   0  0  0  0  0  0  0  0  0  0  0  0
    5.7589    0.8100    0.0000 H   0  0  0  0  0  0  0  0  0  0  0  0
    5.3728   15.4882    0.0000 H   0  0  0  0  0  0  0  0  0  0  0  0
    4.5542   15.8024    0.0000 H   0  0  0  0  0  0  0  0  0  0  0  0
    4.2400   14.9838    0.0000 H   0  0  0  0  0  0  0  0  0  0  0  0
    0.6200    8.5212    0.0000 H   0  0  0  0  0  0  0  0  0  0  0  0
    0.0000    7.9012    0.0000 H   0  0  0  0  0  0  0  0  0  0  0  0
    0.6200    7.2812    0.0000 H   0  0  0  0  0  0  0  0  0  0  0  0
    1.6200    7.2812    0.0000 H   0  0  0  0  0  0  0  0  0  0  0  0
    2.2400    7.9012    0.0000 H   0  0  0  0  0  0  0  0  0  0  0  0
    1.6200    8.5212    0.0000 H   0  0  0  0  0  0  0  0  0  0  0  0
  1 18  2  0  0  0  0
  2 20  2  0  0  0  0
  3 23  1  0  0  0  0
  3 29  1  0  0  0  0
  4 23  2  0  0  0  0
  5 24  2  0  0  0  0
  6 31  2  0  0  0  0
  7 12  1  0  0  0  0
  7 39  1  0  0  0  0
  8 16  1  0  0  0  0
  8 18  1  0  0  0  0
  8 51  1  0  0  0  0
 17  9  1  1  0  0  0
  9 20  1  0  0  0  0
  9 52  1  0  0  0  0
 10 22  1  0  0  0  0
 10 24  1  0  0  0  0
 10 25  1  0  0  0  0
 11 26  1  0  0  0  0
 11 31  1  0  0  0  0
 11 62  1  0  0  0  0
 12 34  2  0  0  0  0
 13 14  1  0  0  0  0
 13 15  1  6  0  0  0
 13 18  1  0  0  0  0
 13 43  1  0  0  0  0
 14 16  1  0  0  0  0
 14 44  1  0  0  0  0
 14 45  1  0  0  0  0
 15 17  1  0  0  0  0
 15 46  1  0  0  0  0
 15 47  1  0  0  0  0
 16 48  1  0  0  0  0
 16 49  1  0  0  0  0
 17 19  1  0  0  0  0
 17 50  1  0  0  0  0
 19 21  2  0  0  0  0
 19 53  1  0  0  0  0
 20 22  1  0  0  0  0
 21 23  1  0  0  0  0
 21 54  1  0  0  0  0
 22 55  1  0  0  0  0
 22 56  1  0  0  0  0
 24 26  1  0  0  0  0
 25 27  2  0  0  0  0
 25 57  1  0  0  0  0
 26 28  2  0  0  0  0
 27 28  1  0  0  0  0
 27 58  1  0  0  0  0
 28 59  1  0  0  0  0
 29 30  1  0  0  0  0
 29 60  1  0  0  0  0
 29 61  1  0  0  0  0
 30 32  2  0  0  0  0
 30 33  1  0  0  0  0
 31 34  1  0  0  0  0
 32 35  1  0  0  0  0
 32 63  1  0  0  0  0
 33 36  2  0  0  0  0
 33 64  1  0  0  0  0
 34 37  1  0  0  0  0
 35 38  2  0  0  0  0
 35 65  1  0  0  0  0
 36 38  1  0  0  0  0
 36 66  1  0  0  0  0
 37 39  2  0  0  0  0
 37 67  1  0  0  0  0
 38 68  1  0  0  0  0
 39 40  1  0  0  0  0
 40 69  1  0  0  0  0
 40 70  1  0  0  0  0
 40 71  1  0  0  0  0
 41 42  1  0  0  0  0
 41 72  1  0  0  0  0
 41 73  1  0  0  0  0
 41 74  1  0  0  0  0
 42 75  1  0  0  0  0
 42 76  1  0  0  0  0
 42 77  1  0  0  0  0
M  END
> <PUBCHEM_COMPOUND_CID>
142066960

> <PUBCHEM_COMPOUND_CANONICALIZED>
1

> <PUBCHEM_CACTVS_COMPLEXITY>
1070

> <PUBCHEM_CACTVS_HBOND_ACCEPTOR>
8

> <PUBCHEM_CACTVS_HBOND_DONOR>
3

> <PUBCHEM_CACTVS_ROTATABLE_BOND>
12

> <PUBCHEM_CACTVS_SUBSKEYS>
AAADcfB7uAAAAAAAAAAAAAAAAAAAAWLAAAAwQAAAAAAAAAABwAAAHgAUAAAADSzhngYyjJPQBACpA6X2WgCCAAAmIgAomKG+bNoIZjqAtbuWMYhm1hmI6ce/wCAOAAAAAAAAAAAAAAAAAAAAAAAAAAAAAA==

> <PUBCHEM_IUPAC_OPENEYE_NAME>
benzyl (E,4S)-4-[[2-[3-[(5-methylisoxazole-3-carbonyl)amino]-2-oxo-1-pyridyl]acetyl]amino]-5-[(3S)-2-oxopyrrolidin-3-yl]pent-2-enoate;ethane

> <PUBCHEM_IUPAC_CAS_NAME>
ethane;(E,4S)-4-[[2-[3-[[(5-methyl-3-isoxazolyl)-oxomethyl]amino]-2-oxo-1-pyridinyl]-1-oxoethyl]amino]-5-[(3S)-2-oxo-3-pyrrolidinyl]-2-pentenoic acid (phenylmethyl) ester

> <PUBCHEM_IUPAC_NAME_MARKUP>
benzyl (<I>E</I>,4<I>S</I>)-4-[[2-[3-[(5-methyl-1,2-oxazole-3-carbonyl)amino]-2-oxopyridin-1-yl]acetyl]amino]-5-[(3<I>S</I>)-2-oxopyrrolidin-3-yl]pent-2-enoate;ethane

> <PUBCHEM_IUPAC_NAME>
benzyl (E,4S)-4-[[2-[3-[(5-methyl-1,2-oxazole-3-carbonyl)amino]-2-oxopyridin-1-yl]acetyl]amino]-5-[(3S)-2-oxopyrrolidin-3-yl]pent-2-enoate;ethane

> <PUBCHEM_IUPAC_SYSTEMATIC_NAME>
ethane;(phenylmethyl) (E,4S)-4-[2-[3-[(5-methyl-1,2-oxazol-3-yl)carbonylamino]-2-oxidanylidene-pyridin-1-yl]ethanoylamino]-5-[(3S)-2-oxidanylidenepyrrolidin-3-yl]pent-2-enoate

> <PUBCHEM_IUPAC_TRADITIONAL_NAME>
ethane;(E,4S)-4-[[2-[2-keto-3-[(5-methylisoxazole-3-carbonyl)amino]-1-pyridyl]acetyl]amino]-5-[(3S)-2-ketopyrrolidin-3-yl]pent-2-enoic acid benzyl ester

> <PUBCHEM_IUPAC_INCHI>
InChI=1S/C28H29N5O7.C2H6/c1-18-14-23(32-40-18)27(37)31-22-8-5-13-33(28(22)38)16-24(34)30-21(15-20-11-12-29-26(20)36)9-10-25(35)39-17-19-6-3-2-4-7-19;1-2/h2-10,13-14,20-21H,11-12,15-17H2,1H3,(H,29,36)(H,30,34)(H,31,37);1-2H3/b10-9+;/t20-,21+;/m0./s1

> <PUBCHEM_IUPAC_INCHIKEY>
YRDBRDABNZKUGX-AZMYENMHSA-N

> <PUBCHEM_EXACT_MASS>
577.253648

> <PUBCHEM_MOLECULAR_FORMULA>
C30H35N5O7

> <PUBCHEM_MOLECULAR_WEIGHT>
577.6

> <PUBCHEM_OPENEYE_CAN_SMILES>
CC.CC1=CC(=NO1)C(=O)NC2=CC=CN(C2=O)CC(=O)NC(CC3CCNC3=O)C=CC(=O)OCC4=CC=CC=C4

> <PUBCHEM_OPENEYE_ISO_SMILES>
CC.CC1=CC(=NO1)C(=O)NC2=CC=CN(C2=O)CC(=O)N[C@@H](C[C@@H]3CCNC3=O)/C=C/C(=O)OCC4=CC=CC=C4

> <PUBCHEM_CACTVS_TPSA>
160

> <PUBCHEM_MONOISOTOPIC_WEIGHT>
577.253648

> <PUBCHEM_TOTAL_CHARGE>
0

> <PUBCHEM_HEAVY_ATOM_COUNT>
42

> <PUBCHEM_ATOM_DEF_STEREO_COUNT>
2

> <PUBCHEM_ATOM_UDEF_STEREO_COUNT>
0

> <PUBCHEM_BOND_DEF_STEREO_COUNT>
1

> <PUBCHEM_BOND_UDEF_STEREO_COUNT>
0

> <PUBCHEM_ISOTOPIC_ATOM_COUNT>
0

> <PUBCHEM_COMPONENT_COUNT>
2

> <PUBCHEM_CACTVS_TAUTO_COUNT>
-1

> <PUBCHEM_COORDINATE_TYPE>
1
5
255

> <PUBCHEM_BONDANNOTATIONS>
10  24  8
10  25  8
12  34  8
13  15  6
24  26  8
25  27  8
26  28  8
27  28  8
30  32  8
30  33  8
32  35  8
33  36  8
34  37  8
35  38  8
36  38  8
37  39  8
7  12  8
7  39  8
17  9  5

$$$$
142066961
  -OEChem-02212016592D

 69 72  0     1  0  0  0  0  0999 V2000
    9.0062   -2.9716    0.0000 O   0  0  0  0  0  0  0  0  0  0  0  0
    7.9128    0.6920    0.0000 O   0  0  0  0  0  0  0  0  0  0  0  0
    6.1808   -4.3080    0.0000 O   0  0  0  0  0  0  0  0  0  0  0  0
    7.9128   -4.3080    0.0000 O   0  0  0  0  0  0  0  0  0  0  0  0
    4.4487    1.6920    0.0000 O   0  0  0  0  0  0  0  0  0  0  0  0
    5.3147    5.1920    0.0000 O   0  0  0  0  0  0  0  0  0  0  0  0
    2.0000    5.5284    0.0000 O   0  0  0  0  0  0  0  0  0  0  0  0
   10.7275   -2.5104    0.0000 N   0  0  0  0  0  0  0  0  0  0  0  0
    7.0468   -0.8080    0.0000 N   0  0  0  0  0  0  0  0  0  0  0  0
    6.1808    1.6920    0.0000 N   0  0  0  0  0  0  0  0  0  0  0  0
    4.4487    3.6920    0.0000 N   0  0  0  0  0  0  0  0  0  0  0  0
    2.6691    4.7853    0.0000 N   0  0  0  0  0  0  0  0  0  0  0  0
    9.6448   -1.3080    0.0000 C   0  0  1  0  0  0  0  0  0  0  0  0
   10.5584   -0.9013    0.0000 C   0  0  0  0  0  0  0  0  0  0  0  0
    8.7788   -0.8080    0.0000 C   0  0  0  0  0  0  0  0  0  0  0  0
   11.2275   -1.6444    0.0000 C   0  0  0  0  0  0  0  0  0  0  0  0
    7.9128   -1.3080    0.0000 C   0  0  1  0  0  0  0  0  0  0  0  0
    9.7494   -2.3025    0.0000 C   0  0  0  0  0  0  0  0  0  0  0  0
    7.9128   -2.3080    0.0000 C   0  0  0  0  0  0  0  0  0  0  0  0
    7.0468    0.1920    0.0000 C   0  0  0  0  0  0  0  0  0  0  0  0
    7.0468   -2.8080    0.0000 C   0  0  0  0  0  0  0  0  0  0  0  0
    6.1808    0.6920    0.0000 C   0  0  0  0  0  0  0  0  0  0  0  0
    7.0468   -3.8080    0.0000 C   0  0  0  0  0  0  0  0  0  0  0  0
    5.3147    2.1920    0.0000 C   0  0  0  0  0  0  0  0  0  0  0  0
    7.0468    2.1920    0.0000 C   0  0  0  0  0  0  0  0  0  0  0  0
    5.3147    3.1920    0.0000 C   0  0  0  0  0  0  0  0  0  0  0  0
    7.0468    3.1920    0.0000 C   0  0  0  0  0  0  0  0  0  0  0  0
    6.1808    3.6920    0.0000 C   0  0  0  0  0  0  0  0  0  0  0  0
    6.1808   -5.3080    0.0000 C   0  0  0  0  0  0  0  0  0  0  0  0
    5.3147   -5.8080    0.0000 C   0  0  0  0  0  0  0  0  0  0  0  0
    4.4487    4.6920    0.0000 C   0  0  0  0  0  0  0  0  0  0  0  0
    5.3147   -6.8080    0.0000 C   0  0  0  0  0  0  0  0  0  0  0  0
    4.4487   -5.3080    0.0000 C   0  0  0  0  0  0  0  0  0  0  0  0
    3.5827    5.1920    0.0000 C   0  0  0  0  0  0  0  0  0  0  0  0
    4.4487   -7.3080    0.0000 C   0  0  0  0  0  0  0  0  0  0  0  0
    3.5827   -5.8080    0.0000 C   0  0  0  0  0  0  0  0  0  0  0  0
    3.4782    6.1865    0.0000 C   0  0  0  0  0  0  0  0  0  0  0  0
    3.5827   -6.8080    0.0000 C   0  0  0  0  0  0  0  0  0  0  0  0
    2.5000    6.3944    0.0000 C   0  0  0  0  0  0  0  0  0  0  0  0
    2.0933    7.3080    0.0000 C   0  0  0  0  0  0  0  0  0  0  0  0
    9.1249   -1.6457    0.0000 H   0  0  0  0  0  0  0  0  0  0  0  0
   11.0600   -0.5368    0.0000 H   0  0  0  0  0  0  0  0  0  0  0  0
   10.2484   -0.3643    0.0000 H   0  0  0  0  0  0  0  0  0  0  0  0
    9.1774   -0.3330    0.0000 H   0  0  0  0  0  0  0  0  0  0  0  0
    8.3803   -0.3330    0.0000 H   0  0  0  0  0  0  0  0  0  0  0  0
   11.7291   -2.0088    0.0000 H   0  0  0  0  0  0  0  0  0  0  0  0
   11.6424   -1.1836    0.0000 H   0  0  0  0  0  0  0  0  0  0  0  0
    7.9128   -0.6880    0.0000 H   0  0  0  0  0  0  0  0  0  0  0  0
   10.9797   -3.0768    0.0000 H   0  0  0  0  0  0  0  0  0  0  0  0
    6.5098   -1.1180    0.0000 H   0  0  0  0  0  0  0  0  0  0  0  0
    8.4497   -2.6180    0.0000 H   0  0  0  0  0  0  0  0  0  0  0  0
    6.5098   -2.4980    0.0000 H   0  0  0  0  0  0  0  0  0  0  0  0
    5.5702    0.7997    0.0000 H   0  0  0  0  0  0  0  0  0  0  0  0
    5.9687    0.1094    0.0000 H   0  0  0  0  0  0  0  0  0  0  0  0
    7.5837    1.8820    0.0000 H   0  0  0  0  0  0  0  0  0  0  0  0
    7.5837    3.5020    0.0000 H   0  0  0  0  0  0  0  0  0  0  0  0
    6.1808    4.3120    0.0000 H   0  0  0  0  0  0  0  0  0  0  0  0
    6.3928   -5.8906    0.0000 H   0  0  0  0  0  0  0  0  0  0  0  0
    6.7913   -5.2003    0.0000 H   0  0  0  0  0  0  0  0  0  0  0  0
    3.9118    3.3820    0.0000 H   0  0  0  0  0  0  0  0  0  0  0  0
    5.8517   -7.1180    0.0000 H   0  0  0  0  0  0  0  0  0  0  0  0
    4.4487   -4.6880    0.0000 H   0  0  0  0  0  0  0  0  0  0  0  0
    3.9389    6.6014    0.0000 H   0  0  0  0  0  0  0  0  0  0  0  0
    4.4487   -7.9280    0.0000 H   0  0  0  0  0  0  0  0  0  0  0  0
    3.0457   -5.4980    0.0000 H   0  0  0  0  0  0  0  0  0  0  0  0
    3.0457   -7.1180    0.0000 H   0  0  0  0  0  0  0  0  0  0  0  0
    2.6597    7.5602    0.0000 H   0  0  0  0  0  0  0  0  0  0  0  0
    1.8411    7.8744    0.0000 H   0  0  0  0  0  0  0  0  0  0  0  0
    1.5269    7.0558    0.0000 H   0  0  0  0  0  0  0  0  0  0  0  0
  1 18  2  0  0  0  0
  2 20  2  0  0  0  0
  3 23  1  0  0  0  0
  3 29  1  0  0  0  0
  4 23  2  0  0  0  0
  5 24  2  0  0  0  0
  6 31  2  0  0  0  0
  7 12  1  0  0  0  0
  7 39  1  0  0  0  0
  8 16  1  0  0  0  0
  8 18  1  0  0  0  0
  8 49  1  0  0  0  0
 17  9  1  1  0  0  0
  9 20  1  0  0  0  0
  9 50  1  0  0  0  0
 10 22  1  0  0  0  0
 10 24  1  0  0  0  0
 10 25  1  0  0  0  0
 11 26  1  0  0  0  0
 11 31  1  0  0  0  0
 11 60  1  0  0  0  0
 12 34  2  0  0  0  0
 13 14  1  0  0  0  0
 13 15  1  6  0  0  0
 13 18  1  0  0  0  0
 13 41  1  0  0  0  0
 14 16  1  0  0  0  0
 14 42  1  0  0  0  0
 14 43  1  0  0  0  0
 15 17  1  0  0  0  0
 15 44  1  0  0  0  0
 15 45  1  0  0  0  0
 16 46  1  0  0  0  0
 16 47  1  0  0  0  0
 17 19  1  0  0  0  0
 17 48  1  0  0  0  0
 19 21  2  0  0  0  0
 19 51  1  0  0  0  0
 20 22  1  0  0  0  0
 21 23  1  0  0  0  0
 21 52  1  0  0  0  0
 22 53  1  0  0  0  0
 22 54  1  0  0  0  0
 24 26  1  0  0  0  0
 25 27  2  0  0  0  0
 25 55  1  0  0  0  0
 26 28  2  0  0  0  0
 27 28  1  0  0  0  0
 27 56  1  0  0  0  0
 28 57  1  0  0  0  0
 29 30  1  0  0  0  0
 29 58  1  0  0  0  0
 29 59  1  0  0  0  0
 30 32  2  0  0  0  0
 30 33  1  0  0  0  0
 31 34  1  0  0  0  0
 32 35  1  0  0  0  0
 32 61  1  0  0  0  0
 33 36  2  0  0  0  0
 33 62  1  0  0  0  0
 34 37  1  0  0  0  0
 35 38  2  0  0  0  0
 35 64  1  0  0  0  0
 36 38  1  0  0  0  0
 36 65  1  0  0  0  0
 37 39  2  0  0  0  0
 37 63  1  0  0  0  0
 38 66  1  0  0  0  0
 39 40  1  0  0  0  0
 40 67  1  0  0  0  0
 40 68  1  0  0  0  0
 40 69  1  0  0  0  0
M  END
> <PUBCHEM_COMPOUND_CID>
142066961

> <PUBCHEM_COMPOUND_CANONICALIZED>
1

> <PUBCHEM_CACTVS_COMPLEXITY>
1070

> <PUBCHEM_CACTVS_HBOND_ACCEPTOR>
8

> <PUBCHEM_CACTVS_HBOND_DONOR>
3

> <PUBCHEM_CACTVS_ROTATABLE_BOND>
12

> <PUBCHEM_CACTVS_SUBSKEYS>
AAADceB7uAAAAAAAAAAAAAAAAAAAAWLAAAAwQAAAAAAAAAABwAAAHgAUAAAADSzhngYyjJPQBACpA6X2WgCCAAAmIgAomKG+bNoIZjqAtbuWMYhm1hmI6ce/wCAOAAAAAAAAAAAAAAAAAAAAAAAAAAAAAA==

> <PUBCHEM_IUPAC_OPENEYE_NAME>
benzyl (E,4S)-4-[[2-[3-[(5-methylisoxazole-3-carbonyl)amino]-2-oxo-1-pyridyl]acetyl]amino]-5-[(3S)-2-oxopyrrolidin-3-yl]pent-2-enoate

> <PUBCHEM_IUPAC_CAS_NAME>
(E,4S)-4-[[2-[3-[[(5-methyl-3-isoxazolyl)-oxomethyl]amino]-2-oxo-1-pyridinyl]-1-oxoethyl]amino]-5-[(3S)-2-oxo-3-pyrrolidinyl]-2-pentenoic acid (phenylmethyl) ester

> <PUBCHEM_IUPAC_NAME_MARKUP>
benzyl (<I>E</I>,4<I>S</I>)-4-[[2-[3-[(5-methyl-1,2-oxazole-3-carbonyl)amino]-2-oxopyridin-1-yl]acetyl]amino]-5-[(3<I>S</I>)-2-oxopyrrolidin-3-yl]pent-2-enoate

> <PUBCHEM_IUPAC_NAME>
benzyl (E,4S)-4-[[2-[3-[(5-methyl-1,2-oxazole-3-carbonyl)amino]-2-oxopyridin-1-yl]acetyl]amino]-5-[(3S)-2-oxopyrrolidin-3-yl]pent-2-enoate

> <PUBCHEM_IUPAC_SYSTEMATIC_NAME>
(phenylmethyl) (E,4S)-4-[2-[3-[(5-methyl-1,2-oxazol-3-yl)carbonylamino]-2-oxidanylidene-pyridin-1-yl]ethanoylamino]-5-[(3S)-2-oxidanylidenepyrrolidin-3-yl]pent-2-enoate

> <PUBCHEM_IUPAC_TRADITIONAL_NAME>
(E,4S)-4-[[2-[2-keto-3-[(5-methylisoxazole-3-carbonyl)amino]-1-pyridyl]acetyl]amino]-5-[(3S)-2-ketopyrrolidin-3-yl]pent-2-enoic acid benzyl ester

> <PUBCHEM_IUPAC_INCHI>
InChI=1S/C28H29N5O7/c1-18-14-23(32-40-18)27(37)31-22-8-5-13-33(28(22)38)16-24(34)30-21(15-20-11-12-29-26(20)36)9-10-25(35)39-17-19-6-3-2-4-7-19/h2-10,13-14,20-21H,11-12,15-17H2,1H3,(H,29,36)(H,30,34)(H,31,37)/b10-9+/t20-,21+/m0/s1

> <PUBCHEM_IUPAC_INCHIKEY>
PWHIIUXVOBFFHT-XNZYIBKVSA-N

> <PUBCHEM_XLOGP3_AA>
1.4

> <PUBCHEM_EXACT_MASS>
547.206698

> <PUBCHEM_MOLECULAR_FORMULA>
C28H29N5O7

> <PUBCHEM_MOLECULAR_WEIGHT>
547.6

> <PUBCHEM_OPENEYE_CAN_SMILES>
CC1=CC(=NO1)C(=O)NC2=CC=CN(C2=O)CC(=O)NC(CC3CCNC3=O)C=CC(=O)OCC4=CC=CC=C4

> <PUBCHEM_OPENEYE_ISO_SMILES>
CC1=CC(=NO1)C(=O)NC2=CC=CN(C2=O)CC(=O)N[C@@H](C[C@@H]3CCNC3=O)/C=C/C(=O)OCC4=CC=CC=C4

> <PUBCHEM_CACTVS_TPSA>
160

> <PUBCHEM_MONOISOTOPIC_WEIGHT>
547.206698

> <PUBCHEM_TOTAL_CHARGE>
0

> <PUBCHEM_HEAVY_ATOM_COUNT>
40

> <PUBCHEM_ATOM_DEF_STEREO_COUNT>
2

> <PUBCHEM_ATOM_UDEF_STEREO_COUNT>
0

> <PUBCHEM_BOND_DEF_STEREO_COUNT>
1

> <PUBCHEM_BOND_UDEF_STEREO_COUNT>
0

> <PUBCHEM_ISOTOPIC_ATOM_COUNT>
0

> <PUBCHEM_COMPONENT_COUNT>
1

> <PUBCHEM_CACTVS_TAUTO_COUNT>
-1

> <PUBCHEM_COORDINATE_TYPE>
1
5
255

> <PUBCHEM_BONDANNOTATIONS>
10  24  8
10  25  8
12  34  8
13  15  6
24  26  8
25  27  8
26  28  8
27  28  8
30  32  8
30  33  8
32  35  8
33  36  8
34  37  8
35  38  8
36  38  8
37  39  8
7  12  8
7  39  8
17  9  5

$$$$
142066972
  -OEChem-02212016592D

 74 76  0     1  0  0  0  0  0999 V2000
   12.7150    8.6168    0.0000 F   0  0  0  0  0  0  0  0  0  0  0  0
    6.1350    1.0778    0.0000 O   0  0  0  0  0  0  0  0  0  0  0  0
    6.3859    5.4313    0.0000 O   0  0  0  0  0  0  0  0  0  0  0  0
    2.7879    2.1992    0.0000 O   0  0  0  0  0  0  0  0  0  0  0  0
    3.6539    3.6993    0.0000 O   0  0  0  0  0  0  0  0  0  0  0  0
    2.9218    6.4313    0.0000 O   0  0  0  0  0  0  0  0  0  0  0  0
    3.7879    9.9313    0.0000 O   0  0  0  0  0  0  0  0  0  0  0  0
    0.4731   10.2677    0.0000 O   0  0  0  0  0  0  0  0  0  0  0  0
    7.8563    0.6166    0.0000 N   0  0  0  0  0  0  0  0  0  0  0  0
    5.5199    3.9313    0.0000 N   0  0  0  0  0  0  0  0  0  0  0  0
    4.6539    6.4313    0.0000 N   0  0  0  0  0  0  0  0  0  0  0  0
    2.9218    8.4313    0.0000 N   0  0  0  0  0  0  0  0  0  0  0  0
    1.1423    9.5246    0.0000 N   0  0  0  0  0  0  0  0  0  0  0  0
    7.5199    2.1993    0.0000 C   0  0  1  0  0  0  0  0  0  0  0  0
    8.5144    2.0948    0.0000 C   0  0  0  0  0  0  0  0  0  0  0  0
    7.0199    3.0653    0.0000 C   0  0  0  0  0  0  0  0  0  0  0  0
    8.7224    1.1166    0.0000 C   0  0  0  0  0  0  0  0  0  0  0  0
    6.0199    3.0653    0.0000 C   0  0  1  0  0  0  0  0  0  0  0  0
    7.1132    1.2857    0.0000 C   0  0  0  0  0  0  0  0  0  0  0  0
    5.5199    2.1993    0.0000 C   0  0  0  0  0  0  0  0  0  0  0  0
    5.5199    4.9313    0.0000 C   0  0  0  0  0  0  0  0  0  0  0  0
    4.5200    2.1992    0.0000 C   0  0  0  0  0  0  0  0  0  0  0  0
    4.6539    5.4313    0.0000 C   0  0  0  0  0  0  0  0  0  0  0  0
    3.6539    2.6992    0.0000 C   0  0  0  0  0  0  0  0  0  0  0  0
    3.7879    6.9313    0.0000 C   0  0  0  0  0  0  0  0  0  0  0  0
    5.5199    6.9313    0.0000 C   0  0  0  0  0  0  0  0  0  0  0  0
    3.7879    7.9313    0.0000 C   0  0  0  0  0  0  0  0  0  0  0  0
    5.5199    7.9313    0.0000 C   0  0  0  0  0  0  0  0  0  0  0  0
    4.6539    8.4313    0.0000 C   0  0  0  0  0  0  0  0  0  0  0  0
    2.7878    1.1993    0.0000 C   0  0  0  0  0  0  0  0  0  0  0  0
    2.9218    9.4313    0.0000 C   0  0  0  0  0  0  0  0  0  0  0  0
    2.0558    9.9313    0.0000 C   0  0  0  0  0  0  0  0  0  0  0  0
    1.9513   10.9259    0.0000 C   0  0  0  0  0  0  0  0  0  0  0  0
    0.9731   11.1338    0.0000 C   0  0  0  0  0  0  0  0  0  0  0  0
    0.5664   12.0473    0.0000 C   0  0  0  0  0  0  0  0  0  0  0  0
   12.7150    5.6168    0.0000 C   0  0  0  0  0  0  0  0  0  0  0  0
   11.8489    6.1168    0.0000 C   0  0  0  0  0  0  0  0  0  0  0  0
   13.5810    6.1168    0.0000 C   0  0  0  0  0  0  0  0  0  0  0  0
   12.7150    4.6168    0.0000 C   0  0  0  0  0  0  0  0  0  0  0  0
   11.8489    7.1168    0.0000 C   0  0  0  0  0  0  0  0  0  0  0  0
   13.5810    7.1168    0.0000 C   0  0  0  0  0  0  0  0  0  0  0  0
   12.7150    7.6168    0.0000 C   0  0  0  0  0  0  0  0  0  0  0  0
    6.9008    2.1668    0.0000 H   0  0  0  0  0  0  0  0  0  0  0  0
    9.1310    2.1596    0.0000 H   0  0  0  0  0  0  0  0  0  0  0  0
    8.5144    2.7148    0.0000 H   0  0  0  0  0  0  0  0  0  0  0  0
    7.6025    3.2774    0.0000 H   0  0  0  0  0  0  0  0  0  0  0  0
    6.9122    3.6759    0.0000 H   0  0  0  0  0  0  0  0  0  0  0  0
    8.9745    0.5502    0.0000 H   0  0  0  0  0  0  0  0  0  0  0  0
    9.3120    1.3082    0.0000 H   0  0  0  0  0  0  0  0  0  0  0  0
    5.3999    3.0653    0.0000 H   0  0  0  0  0  0  0  0  0  0  0  0
    7.7915    0.0000    0.0000 H   0  0  0  0  0  0  0  0  0  0  0  0
    4.9830    3.6213    0.0000 H   0  0  0  0  0  0  0  0  0  0  0  0
    5.8299    1.6623    0.0000 H   0  0  0  0  0  0  0  0  0  0  0  0
    4.2100    1.6623    0.0000 H   0  0  0  0  0  0  0  0  0  0  0  0
    4.0433    5.5390    0.0000 H   0  0  0  0  0  0  0  0  0  0  0  0
    4.4418    4.8487    0.0000 H   0  0  0  0  0  0  0  0  0  0  0  0
    6.0568    6.6213    0.0000 H   0  0  0  0  0  0  0  0  0  0  0  0
    6.0568    8.2413    0.0000 H   0  0  0  0  0  0  0  0  0  0  0  0
    4.6539    9.0513    0.0000 H   0  0  0  0  0  0  0  0  0  0  0  0
    2.3849    8.1213    0.0000 H   0  0  0  0  0  0  0  0  0  0  0  0
    2.1678    1.1993    0.0000 H   0  0  0  0  0  0  0  0  0  0  0  0
    2.7878    0.5793    0.0000 H   0  0  0  0  0  0  0  0  0  0  0  0
    3.4078    1.1993    0.0000 H   0  0  0  0  0  0  0  0  0  0  0  0
    2.4120   11.3407    0.0000 H   0  0  0  0  0  0  0  0  0  0  0  0
    1.1328   12.2995    0.0000 H   0  0  0  0  0  0  0  0  0  0  0  0
    0.3142   12.6137    0.0000 H   0  0  0  0  0  0  0  0  0  0  0  0
    0.0000   11.7951    0.0000 H   0  0  0  0  0  0  0  0  0  0  0  0
   11.3120    5.8068    0.0000 H   0  0  0  0  0  0  0  0  0  0  0  0
   14.1179    5.8068    0.0000 H   0  0  0  0  0  0  0  0  0  0  0  0
   12.0950    4.6168    0.0000 H   0  0  0  0  0  0  0  0  0  0  0  0
   12.7150    3.9968    0.0000 H   0  0  0  0  0  0  0  0  0  0  0  0
   13.3350    4.6168    0.0000 H   0  0  0  0  0  0  0  0  0  0  0  0
   11.3120    7.4268    0.0000 H   0  0  0  0  0  0  0  0  0  0  0  0
   14.1179    7.4268    0.0000 H   0  0  0  0  0  0  0  0  0  0  0  0
  1 42  1  0  0  0  0
  2 19  2  0  0  0  0
  3 21  2  0  0  0  0
  4 24  1  0  0  0  0
  4 30  1  0  0  0  0
  5 24  2  0  0  0  0
  6 25  2  0  0  0  0
  7 31  2  0  0  0  0
  8 13  1  0  0  0  0
  8 34  1  0  0  0  0
  9 17  1  0  0  0  0
  9 19  1  0  0  0  0
  9 51  1  0  0  0  0
 18 10  1  1  0  0  0
 10 21  1  0  0  0  0
 10 52  1  0  0  0  0
 11 23  1  0  0  0  0
 11 25  1  0  0  0  0
 11 26  1  0  0  0  0
 12 27  1  0  0  0  0
 12 31  1  0  0  0  0
 12 60  1  0  0  0  0
 13 32  2  0  0  0  0
 14 15  1  0  0  0  0
 14 16  1  6  0  0  0
 14 19  1  0  0  0  0
 14 43  1  0  0  0  0
 15 17  1  0  0  0  0
 15 44  1  0  0  0  0
 15 45  1  0  0  0  0
 16 18  1  0  0  0  0
 16 46  1  0  0  0  0
 16 47  1  0  0  0  0
 17 48  1  0  0  0  0
 17 49  1  0  0  0  0
 18 20  1  0  0  0  0
 18 50  1  0  0  0  0
 20 22  2  0  0  0  0
 20 53  1  0  0  0  0
 21 23  1  0  0  0  0
 22 24  1  0  0  0  0
 22 54  1  0  0  0  0
 23 55  1  0  0  0  0
 23 56  1  0  0  0  0
 25 27  1  0  0  0  0
 26 28  2  0  0  0  0
 26 57  1  0  0  0  0
 27 29  2  0  0  0  0
 28 29  1  0  0  0  0
 28 58  1  0  0  0  0
 29 59  1  0  0  0  0
 30 61  1  0  0  0  0
 30 62  1  0  0  0  0
 30 63  1  0  0  0  0
 31 32  1  0  0  0  0
 32 33  1  0  0  0  0
 33 34  2  0  0  0  0
 33 64  1  0  0  0  0
 34 35  1  0  0  0  0
 35 65  1  0  0  0  0
 35 66  1  0  0  0  0
 35 67  1  0  0  0  0
 36 37  2  0  0  0  0
 36 38  1  0  0  0  0
 36 39  1  0  0  0  0
 37 40  1  0  0  0  0
 37 68  1  0  0  0  0
 38 41  2  0  0  0  0
 38 69  1  0  0  0  0
 39 70  1  0  0  0  0
 39 71  1  0  0  0  0
 39 72  1  0  0  0  0
 40 42  2  0  0  0  0
 40 73  1  0  0  0  0
 41 42  1  0  0  0  0
 41 74  1  0  0  0  0
M  END
> <PUBCHEM_COMPOUND_CID>
142066972

> <PUBCHEM_COMPOUND_CANONICALIZED>
1

> <PUBCHEM_CACTVS_COMPLEXITY>
991

> <PUBCHEM_CACTVS_HBOND_ACCEPTOR>
9

> <PUBCHEM_CACTVS_HBOND_DONOR>
3

> <PUBCHEM_CACTVS_ROTATABLE_BOND>
10

> <PUBCHEM_CACTVS_SUBSKEYS>
AAADcfB7uQAAAAAAAAAAAAAAAAAAAWLAAAAwQAAAAAAAAAABwAAAHwAUAAAADSzBng4yjJPQBACpA6X2WgCCAAAmIgAomKG+bNoIZjqAtbOUMYhmlhiI6cc/gAAOAAAAAAAAAAAAAAAAAAAAAAAAAAAAAA==

> <PUBCHEM_IUPAC_OPENEYE_NAME>
1-fluoro-4-methyl-benzene;methyl (Z,4S)-4-[[2-[3-[(5-methylisoxazole-3-carbonyl)amino]-2-oxo-1-pyridyl]acetyl]amino]-5-[(3S)-2-oxopyrrolidin-3-yl]pent-2-enoate

> <PUBCHEM_IUPAC_CAS_NAME>
1-fluoro-4-methylbenzene;(Z,4S)-4-[[2-[3-[[(5-methyl-3-isoxazolyl)-oxomethyl]amino]-2-oxo-1-pyridinyl]-1-oxoethyl]amino]-5-[(3S)-2-oxo-3-pyrrolidinyl]-2-pentenoic acid methyl ester

> <PUBCHEM_IUPAC_NAME_MARKUP>
1-fluoro-4-methylbenzene;methyl (<I>Z</I>,4<I>S</I>)-4-[[2-[3-[(5-methyl-1,2-oxazole-3-carbonyl)amino]-2-oxopyridin-1-yl]acetyl]amino]-5-[(3<I>S</I>)-2-oxopyrrolidin-3-yl]pent-2-enoate

> <PUBCHEM_IUPAC_NAME>
1-fluoro-4-methylbenzene;methyl (Z,4S)-4-[[2-[3-[(5-methyl-1,2-oxazole-3-carbonyl)amino]-2-oxopyridin-1-yl]acetyl]amino]-5-[(3S)-2-oxopyrrolidin-3-yl]pent-2-enoate

> <PUBCHEM_IUPAC_SYSTEMATIC_NAME>
1-fluoranyl-4-methyl-benzene;methyl (Z,4S)-4-[2-[3-[(5-methyl-1,2-oxazol-3-yl)carbonylamino]-2-oxidanylidene-pyridin-1-yl]ethanoylamino]-5-[(3S)-2-oxidanylidenepyrrolidin-3-yl]pent-2-enoate

> <PUBCHEM_IUPAC_TRADITIONAL_NAME>
1-fluoro-4-methyl-benzene;(Z,4S)-4-[[2-[2-keto-3-[(5-methylisoxazole-3-carbonyl)amino]-1-pyridyl]acetyl]amino]-5-[(3S)-2-ketopyrrolidin-3-yl]pent-2-enoic acid methyl ester

> <PUBCHEM_IUPAC_INCHI>
InChI=1S/C22H25N5O7.C7H7F/c1-13-10-17(26-34-13)21(31)25-16-4-3-9-27(22(16)32)12-18(28)24-15(5-6-19(29)33-2)11-14-7-8-23-20(14)30;1-6-2-4-7(8)5-3-6/h3-6,9-10,14-15H,7-8,11-12H2,1-2H3,(H,23,30)(H,24,28)(H,25,31);2-5H,1H3/b6-5-;/t14-,15+;/m0./s1

> <PUBCHEM_IUPAC_INCHIKEY>
MPRPAXYVYPQKQH-XKAICDOQSA-N

> <PUBCHEM_EXACT_MASS>
581.228577

> <PUBCHEM_MOLECULAR_FORMULA>
C29H32FN5O7

> <PUBCHEM_MOLECULAR_WEIGHT>
581.6

> <PUBCHEM_OPENEYE_CAN_SMILES>
CC1=CC=C(C=C1)F.CC1=CC(=NO1)C(=O)NC2=CC=CN(C2=O)CC(=O)NC(CC3CCNC3=O)C=CC(=O)OC

> <PUBCHEM_OPENEYE_ISO_SMILES>
CC1=CC=C(C=C1)F.CC1=CC(=NO1)C(=O)NC2=CC=CN(C2=O)CC(=O)N[C@@H](C[C@@H]3CCNC3=O)/C=C\C(=O)OC

> <PUBCHEM_CACTVS_TPSA>
160

> <PUBCHEM_MONOISOTOPIC_WEIGHT>
581.228577

> <PUBCHEM_TOTAL_CHARGE>
0

> <PUBCHEM_HEAVY_ATOM_COUNT>
42

> <PUBCHEM_ATOM_DEF_STEREO_COUNT>
2

> <PUBCHEM_ATOM_UDEF_STEREO_COUNT>
0

> <PUBCHEM_BOND_DEF_STEREO_COUNT>
1

> <PUBCHEM_BOND_UDEF_STEREO_COUNT>
0

> <PUBCHEM_ISOTOPIC_ATOM_COUNT>
0

> <PUBCHEM_COMPONENT_COUNT>
2

> <PUBCHEM_CACTVS_TAUTO_COUNT>
-1

> <PUBCHEM_COORDINATE_TYPE>
1
5
255

> <PUBCHEM_BONDANNOTATIONS>
18  10  5
11  25  8
11  26  8
13  32  8
14  16  6
25  27  8
26  28  8
27  29  8
28  29  8
32  33  8
33  34  8
36  37  8
36  38  8
37  40  8
38  41  8
40  42  8
41  42  8
8  13  8
8  34  8

$$$$
142066988
  -OEChem-02212016592D

 84 87  0     1  0  0  0  0  0999 V2000
   13.9343    9.4789    0.0000 F   0  0  0  0  0  0  0  0  0  0  0  0
   12.2023    8.4789    0.0000 F   0  0  0  0  0  0  0  0  0  0  0  0
    4.6539    3.1554    0.0000 O   0  0  0  0  0  0  0  0  0  0  0  0
    7.4794    4.4918    0.0000 O   0  0  0  0  0  0  0  0  0  0  0  0
    6.3859    3.1554    0.0000 O   0  0  0  0  0  0  0  0  0  0  0  0
    6.3859    8.1554    0.0000 O   0  0  0  0  0  0  0  0  0  0  0  0
    2.9218    9.1554    0.0000 O   0  0  0  0  0  0  0  0  0  0  0  0
    3.7879   12.6554    0.0000 O   0  0  0  0  0  0  0  0  0  0  0  0
    0.4731   12.9919    0.0000 O   0  0  0  0  0  0  0  0  0  0  0  0
    9.2007    4.9530    0.0000 N   0  0  0  0  0  0  0  0  0  0  0  0
    5.5199    6.6554    0.0000 N   0  0  0  0  0  0  0  0  0  0  0  0
    4.6539    9.1554    0.0000 N   0  0  0  0  0  0  0  0  0  0  0  0
    2.9218   11.1554    0.0000 N   0  0  0  0  0  0  0  0  0  0  0  0
    1.1423   12.2487    0.0000 N   0  0  0  0  0  0  0  0  0  0  0  0
    4.6539    2.1554    0.0000 C   0  0  0  0  0  0  0  0  0  0  0  0
    8.1180    6.1554    0.0000 C   0  0  3  0  0  0  0  0  0  0  0  0
    3.8449    1.5677    0.0000 C   0  0  0  0  0  0  0  0  0  0  0  0
    5.4629    1.5677    0.0000 C   0  0  0  0  0  0  0  0  0  0  0  0
    4.1539    0.6166    0.0000 C   0  0  0  0  0  0  0  0  0  0  0  0
    5.1539    0.6166    0.0000 C   0  0  0  0  0  0  0  0  0  0  0  0
    7.2520    6.6554    0.0000 C   0  0  0  0  0  0  0  0  0  0  0  0
    9.0315    6.5622    0.0000 C   0  0  0  0  0  0  0  0  0  0  0  0
    6.3859    6.1554    0.0000 C   0  0  1  0  0  0  0  0  0  0  0  0
    9.7007    5.8190    0.0000 C   0  0  0  0  0  0  0  0  0  0  0  0
    8.2225    5.1609    0.0000 C   0  0  0  0  0  0  0  0  0  0  0  0
    6.3859    5.1554    0.0000 C   0  0  0  0  0  0  0  0  0  0  0  0
    5.5199    3.6554    0.0000 C   0  0  0  0  0  0  0  0  0  0  0  0
    5.5199    4.6554    0.0000 C   0  0  0  0  0  0  0  0  0  0  0  0
    5.5199    7.6554    0.0000 C   0  0  0  0  0  0  0  0  0  0  0  0
    4.6539    8.1554    0.0000 C   0  0  0  0  0  0  0  0  0  0  0  0
    3.7879    9.6554    0.0000 C   0  0  0  0  0  0  0  0  0  0  0  0
    5.5199    9.6554    0.0000 C   0  0  0  0  0  0  0  0  0  0  0  0
    3.7879   10.6554    0.0000 C   0  0  0  0  0  0  0  0  0  0  0  0
    5.5199   10.6554    0.0000 C   0  0  0  0  0  0  0  0  0  0  0  0
    4.6539   11.1554    0.0000 C   0  0  0  0  0  0  0  0  0  0  0  0
    2.9218   12.1554    0.0000 C   0  0  0  0  0  0  0  0  0  0  0  0
    2.0558   12.6554    0.0000 C   0  0  0  0  0  0  0  0  0  0  0  0
    1.9513   13.6500    0.0000 C   0  0  0  0  0  0  0  0  0  0  0  0
    0.9731   13.8579    0.0000 C   0  0  0  0  0  0  0  0  0  0  0  0
    0.5664   14.7714    0.0000 C   0  0  0  0  0  0  0  0  0  0  0  0
   14.8003    6.9789    0.0000 C   0  0  0  0  0  0  0  0  0  0  0  0
   14.8003    7.9789    0.0000 C   0  0  0  0  0  0  0  0  0  0  0  0
   13.9343    6.4789    0.0000 C   0  0  0  0  0  0  0  0  0  0  0  0
   15.6664    6.4789    0.0000 C   0  0  0  0  0  0  0  0  0  0  0  0
   13.9343    8.4789    0.0000 C   0  0  0  0  0  0  0  0  0  0  0  0
   13.0683    6.9789    0.0000 C   0  0  0  0  0  0  0  0  0  0  0  0
   13.0683    7.9789    0.0000 C   0  0  0  0  0  0  0  0  0  0  0  0
    4.1015    2.4369    0.0000 H   0  0  0  0  0  0  0  0  0  0  0  0
    7.5980    5.8178    0.0000 H   0  0  0  0  0  0  0  0  0  0  0  0
    3.5349    2.1046    0.0000 H   0  0  0  0  0  0  0  0  0  0  0  0
    3.2785    1.3155    0.0000 H   0  0  0  0  0  0  0  0  0  0  0  0
    6.0293    1.3155    0.0000 H   0  0  0  0  0  0  0  0  0  0  0  0
    5.7729    2.1046    0.0000 H   0  0  0  0  0  0  0  0  0  0  0  0
    3.5474    0.4877    0.0000 H   0  0  0  0  0  0  0  0  0  0  0  0
    4.2187    0.0000    0.0000 H   0  0  0  0  0  0  0  0  0  0  0  0
    5.0891    0.0000    0.0000 H   0  0  0  0  0  0  0  0  0  0  0  0
    5.7603    0.4877    0.0000 H   0  0  0  0  0  0  0  0  0  0  0  0
    7.6505    7.1304    0.0000 H   0  0  0  0  0  0  0  0  0  0  0  0
    6.8534    7.1304    0.0000 H   0  0  0  0  0  0  0  0  0  0  0  0
    9.5331    6.9266    0.0000 H   0  0  0  0  0  0  0  0  0  0  0  0
    8.7215    7.0991    0.0000 H   0  0  0  0  0  0  0  0  0  0  0  0
    5.8490    5.8454    0.0000 H   0  0  0  0  0  0  0  0  0  0  0  0
   10.2023    5.4546    0.0000 H   0  0  0  0  0  0  0  0  0  0  0  0
   10.1155    6.2798    0.0000 H   0  0  0  0  0  0  0  0  0  0  0  0
    9.4528    4.3866    0.0000 H   0  0  0  0  0  0  0  0  0  0  0  0
    6.9229    4.8454    0.0000 H   0  0  0  0  0  0  0  0  0  0  0  0
    4.9830    6.3454    0.0000 H   0  0  0  0  0  0  0  0  0  0  0  0
    4.9830    4.9654    0.0000 H   0  0  0  0  0  0  0  0  0  0  0  0
    4.0433    8.2631    0.0000 H   0  0  0  0  0  0  0  0  0  0  0  0
    4.4418    7.5728    0.0000 H   0  0  0  0  0  0  0  0  0  0  0  0
    6.0568    9.3454    0.0000 H   0  0  0  0  0  0  0  0  0  0  0  0
    6.0568   10.9654    0.0000 H   0  0  0  0  0  0  0  0  0  0  0  0
    4.6539   11.7754    0.0000 H   0  0  0  0  0  0  0  0  0  0  0  0
    2.3849   10.8454    0.0000 H   0  0  0  0  0  0  0  0  0  0  0  0
    2.4120   14.0648    0.0000 H   0  0  0  0  0  0  0  0  0  0  0  0
    1.1328   15.0236    0.0000 H   0  0  0  0  0  0  0  0  0  0  0  0
    0.3142   15.3378    0.0000 H   0  0  0  0  0  0  0  0  0  0  0  0
    0.0000   14.5192    0.0000 H   0  0  0  0  0  0  0  0  0  0  0  0
   15.3373    8.2889    0.0000 H   0  0  0  0  0  0  0  0  0  0  0  0
   13.9343    5.8589    0.0000 H   0  0  0  0  0  0  0  0  0  0  0  0
   15.3564    5.9420    0.0000 H   0  0  0  0  0  0  0  0  0  0  0  0
   16.2033    6.1689    0.0000 H   0  0  0  0  0  0  0  0  0  0  0  0
   15.9764    7.0158    0.0000 H   0  0  0  0  0  0  0  0  0  0  0  0
   12.5313    6.6689    0.0000 H   0  0  0  0  0  0  0  0  0  0  0  0
  1 45  1  0  0  0  0
  2 47  1  0  0  0  0
  3 15  1  0  0  0  0
  3 27  1  0  0  0  0
  4 25  2  0  0  0  0
  5 27  2  0  0  0  0
  6 29  2  0  0  0  0
  7 31  2  0  0  0  0
  8 36  2  0  0  0  0
  9 14  1  0  0  0  0
  9 39  1  0  0  0  0
 10 24  1  0  0  0  0
 10 25  1  0  0  0  0
 10 65  1  0  0  0  0
 23 11  1  1  0  0  0
 11 29  1  0  0  0  0
 11 67  1  0  0  0  0
 12 30  1  0  0  0  0
 12 31  1  0  0  0  0
 12 32  1  0  0  0  0
 13 33  1  0  0  0  0
 13 36  1  0  0  0  0
 13 74  1  0  0  0  0
 14 37  2  0  0  0  0
 15 17  1  0  0  0  0
 15 18  1  0  0  0  0
 15 48  1  0  0  0  0
 16 21  1  0  0  0  0
 16 22  1  0  0  0  0
 16 25  1  0  0  0  0
 16 49  1  0  0  0  0
 17 19  1  0  0  0  0
 17 50  1  0  0  0  0
 17 51  1  0  0  0  0
 18 20  1  0  0  0  0
 18 52  1  0  0  0  0
 18 53  1  0  0  0  0
 19 20  1  0  0  0  0
 19 54  1  0  0  0  0
 19 55  1  0  0  0  0
 20 56  1  0  0  0  0
 20 57  1  0  0  0  0
 21 23  1  0  0  0  0
 21 58  1  0  0  0  0
 21 59  1  0  0  0  0
 22 24  1  0  0  0  0
 22 60  1  0  0  0  0
 22 61  1  0  0  0  0
 23 26  1  0  0  0  0
 23 62  1  0  0  0  0
 24 63  1  0  0  0  0
 24 64  1  0  0  0  0
 26 28  2  0  0  0  0
 26 66  1  0  0  0  0
 27 28  1  0  0  0  0
 28 68  1  0  0  0  0
 29 30  1  0  0  0  0
 30 69  1  0  0  0  0
 30 70  1  0  0  0  0
 31 33  1  0  0  0  0
 32 34  2  0  0  0  0
 32 71  1  0  0  0  0
 33 35  2  0  0  0  0
 34 35  1  0  0  0  0
 34 72  1  0  0  0  0
 35 73  1  0  0  0  0
 36 37  1  0  0  0  0
 37 38  1  0  0  0  0
 38 39  2  0  0  0  0
 38 75  1  0  0  0  0
 39 40  1  0  0  0  0
 40 76  1  0  0  0  0
 40 77  1  0  0  0  0
 40 78  1  0  0  0  0
 41 42  2  0  0  0  0
 41 43  1  0  0  0  0
 41 44  1  0  0  0  0
 42 45  1  0  0  0  0
 42 79  1  0  0  0  0
 43 46  2  0  0  0  0
 43 80  1  0  0  0  0
 44 81  1  0  0  0  0
 44 82  1  0  0  0  0
 44 83  1  0  0  0  0
 45 47  2  0  0  0  0
 46 47  1  0  0  0  0
 46 84  1  0  0  0  0
M  END
> <PUBCHEM_COMPOUND_CID>
142066988

> <PUBCHEM_COMPOUND_CANONICALIZED>
1

> <PUBCHEM_CACTVS_COMPLEXITY>
1130

> <PUBCHEM_CACTVS_HBOND_ACCEPTOR>
10

> <PUBCHEM_CACTVS_HBOND_DONOR>
3

> <PUBCHEM_CACTVS_ROTATABLE_BOND>
11

> <PUBCHEM_CACTVS_SUBSKEYS>
AAADcfB/uYAAAAAAAAAAAAAAAAAAAeLEAAAwQAAAAAAAAAABwAAAHwAUAAAADTzhng4yjJPQBACpA6X2WgCCAAAmIgAomKG+bNoIZjqAtbOWMYhmlhiI6ce/gAAOAAAAAAAAAAAAAAAAAAAAAAAAAAAAAA==

> <PUBCHEM_IUPAC_OPENEYE_NAME>
cyclopentyl (E,4S)-4-[[2-[3-[(5-methylisoxazole-3-carbonyl)amino]-2-oxo-1-pyridyl]acetyl]amino]-5-(2-oxopyrrolidin-3-yl)pent-2-enoate;1,2-difluoro-4-methyl-benzene

> <PUBCHEM_IUPAC_CAS_NAME>
1,2-difluoro-4-methylbenzene;(E,4S)-4-[[2-[3-[[(5-methyl-3-isoxazolyl)-oxomethyl]amino]-2-oxo-1-pyridinyl]-1-oxoethyl]amino]-5-(2-oxo-3-pyrrolidinyl)-2-pentenoic acid cyclopentyl ester

> <PUBCHEM_IUPAC_NAME_MARKUP>
cyclopentyl (<I>E</I>,4<I>S</I>)-4-[[2-[3-[(5-methyl-1,2-oxazole-3-carbonyl)amino]-2-oxopyridin-1-yl]acetyl]amino]-5-(2-oxopyrrolidin-3-yl)pent-2-enoate;1,2-difluoro-4-methylbenzene

> <PUBCHEM_IUPAC_NAME>
cyclopentyl (E,4S)-4-[[2-[3-[(5-methyl-1,2-oxazole-3-carbonyl)amino]-2-oxopyridin-1-yl]acetyl]amino]-5-(2-oxopyrrolidin-3-yl)pent-2-enoate;1,2-difluoro-4-methylbenzene

> <PUBCHEM_IUPAC_SYSTEMATIC_NAME>
1,2-bis(fluoranyl)-4-methyl-benzene;cyclopentyl (E,4S)-4-[2-[3-[(5-methyl-1,2-oxazol-3-yl)carbonylamino]-2-oxidanylidene-pyridin-1-yl]ethanoylamino]-5-(2-oxidanylidenepyrrolidin-3-yl)pent-2-enoate

> <PUBCHEM_IUPAC_TRADITIONAL_NAME>
1,2-difluoro-4-methyl-benzene;(E,4S)-4-[[2-[2-keto-3-[(5-methylisoxazole-3-carbonyl)amino]-1-pyridyl]acetyl]amino]-5-(2-ketopyrrolidin-3-yl)pent-2-enoic acid cyclopentyl ester

> <PUBCHEM_IUPAC_INCHI>
InChI=1S/C26H31N5O7.C7H6F2/c1-16-13-21(30-38-16)25(35)29-20-7-4-12-31(26(20)36)15-22(32)28-18(14-17-10-11-27-24(17)34)8-9-23(33)37-19-5-2-3-6-19;1-5-2-3-6(8)7(9)4-5/h4,7-9,12-13,17-19H,2-3,5-6,10-11,14-15H2,1H3,(H,27,34)(H,28,32)(H,29,35);2-4H,1H3/b9-8+;/t17?,18-;/m1./s1

> <PUBCHEM_IUPAC_INCHIKEY>
SEZYTCIFOLEINF-YRSSIUHPSA-N

> <PUBCHEM_EXACT_MASS>
653.266105

> <PUBCHEM_MOLECULAR_FORMULA>
C33H37F2N5O7

> <PUBCHEM_MOLECULAR_WEIGHT>
653.7

> <PUBCHEM_OPENEYE_CAN_SMILES>
CC1=CC(=C(C=C1)F)F.CC1=CC(=NO1)C(=O)NC2=CC=CN(C2=O)CC(=O)NC(CC3CCNC3=O)C=CC(=O)OC4CCCC4

> <PUBCHEM_OPENEYE_ISO_SMILES>
CC1=CC(=C(C=C1)F)F.CC1=CC(=NO1)C(=O)NC2=CC=CN(C2=O)CC(=O)N[C@@H](CC3CCNC3=O)/C=C/C(=O)OC4CCCC4

> <PUBCHEM_CACTVS_TPSA>
160

> <PUBCHEM_MONOISOTOPIC_WEIGHT>
653.266105

> <PUBCHEM_TOTAL_CHARGE>
0

> <PUBCHEM_HEAVY_ATOM_COUNT>
47

> <PUBCHEM_ATOM_DEF_STEREO_COUNT>
1

> <PUBCHEM_ATOM_UDEF_STEREO_COUNT>
1

> <PUBCHEM_BOND_DEF_STEREO_COUNT>
1

> <PUBCHEM_BOND_UDEF_STEREO_COUNT>
0

> <PUBCHEM_ISOTOPIC_ATOM_COUNT>
0

> <PUBCHEM_COMPONENT_COUNT>
2

> <PUBCHEM_CACTVS_TAUTO_COUNT>
-1

> <PUBCHEM_COORDINATE_TYPE>
1
5
255

> <PUBCHEM_BONDANNOTATIONS>
23  11  5
12  31  8
12  32  8
14  37  8
16  21  3
31  33  8
32  34  8
33  35  8
34  35  8
37  38  8
38  39  8
41  42  8
41  43  8
42  45  8
43  46  8
45  47  8
46  47  8
9  14  8
9  39  8

$$$$
142066993
  -OEChem-02212016592D

 90 93  0     1  0  0  0  0  0999 V2000
    4.9840    3.6200    0.0000 F   0  0  0  0  0  0  0  0  0  0  0  0
    3.2519    2.6200    0.0000 F   0  0  0  0  0  0  0  0  0  0  0  0
    3.8494   13.4142    0.0000 O   0  0  0  0  0  0  0  0  0  0  0  0
    8.6282   14.3083    0.0000 O   0  0  0  0  0  0  0  0  0  0  0  0
    3.8494   11.6822    0.0000 O   0  0  0  0  0  0  0  0  0  0  0  0
    5.8494    9.9501    0.0000 O   0  0  0  0  0  0  0  0  0  0  0  0
    5.3494    9.0841    0.0000 O   0  0  0  0  0  0  0  0  0  0  0  0
    4.3494    5.6200    0.0000 O   0  0  0  0  0  0  0  0  0  0  0  0
    1.3106    5.9860    0.0000 O   0  0  0  0  0  0  0  0  0  0  0  0
    9.8883   13.0482    0.0000 N   0  0  0  0  0  0  0  0  0  0  0  0
    7.3494   10.8162    0.0000 N   0  0  0  0  0  0  0  0  0  0  0  0
    6.8494    8.2181    0.0000 N   0  0  0  0  0  0  0  0  0  0  0  0
    4.3494    7.3520    0.0000 N   0  0  0  0  0  0  0  0  0  0  0  0
    2.2617    5.6770    0.0000 N   0  0  0  0  0  0  0  0  0  0  0  0
    8.3494   12.5482    0.0000 C   0  0  3  0  0  0  0  0  0  0  0  0
    2.8494   13.4142    0.0000 C   0  0  0  0  0  0  0  0  0  0  0  0
    2.4156   12.5133    0.0000 C   0  0  0  0  0  0  0  0  0  0  0  0
    2.4156   14.3152    0.0000 C   0  0  0  0  0  0  0  0  0  0  0  0
    1.4406   12.2907    0.0000 C   0  0  0  0  0  0  0  0  0  0  0  0
    1.4406   14.5377    0.0000 C   0  0  0  0  0  0  0  0  0  0  0  0
    7.3494   12.5482    0.0000 C   0  0  0  0  0  0  0  0  0  0  0  0
    8.9372   11.7392    0.0000 C   0  0  0  0  0  0  0  0  0  0  0  0
    0.6588   12.9142    0.0000 C   0  0  0  0  0  0  0  0  0  0  0  0
    0.6588   13.9142    0.0000 C   0  0  0  0  0  0  0  0  0  0  0  0
    6.8494   11.6822    0.0000 C   0  0  1  0  0  0  0  0  0  0  0  0
    9.8883   12.0482    0.0000 C   0  0  0  0  0  0  0  0  0  0  0  0
    8.9372   13.3572    0.0000 C   0  0  0  0  0  0  0  0  0  0  0  0
    5.8494   11.6822    0.0000 C   0  0  0  0  0  0  0  0  0  0  0  0
    4.3494   12.5482    0.0000 C   0  0  0  0  0  0  0  0  0  0  0  0
    5.3494   12.5482    0.0000 C   0  0  0  0  0  0  0  0  0  0  0  0
    6.8494    9.9501    0.0000 C   0  0  0  0  0  0  0  0  0  0  0  0
    7.3494    9.0841    0.0000 C   0  0  0  0  0  0  0  0  0  0  0  0
    5.8494    8.2181    0.0000 C   0  0  0  0  0  0  0  0  0  0  0  0
    7.3494    7.3520    0.0000 C   0  0  0  0  0  0  0  0  0  0  0  0
    5.3494    7.3520    0.0000 C   0  0  0  0  0  0  0  0  0  0  0  0
    6.8494    6.4860    0.0000 C   0  0  0  0  0  0  0  0  0  0  0  0
    5.8494    6.4860    0.0000 C   0  0  0  0  0  0  0  0  0  0  0  0
    3.8494    6.4860    0.0000 C   0  0  0  0  0  0  0  0  0  0  0  0
    2.8494    6.4860    0.0000 C   0  0  0  0  0  0  0  0  0  0  0  0
    2.2617    7.2950    0.0000 C   0  0  0  0  0  0  0  0  0  0  0  0
    1.3106    6.9860    0.0000 C   0  0  0  0  0  0  0  0  0  0  0  0
    0.5016    7.5738    0.0000 C   0  0  0  0  0  0  0  0  0  0  0  0
    5.8500    1.1200    0.0000 C   0  0  0  0  0  0  0  0  0  0  0  0
    5.8500    2.1200    0.0000 C   0  0  0  0  0  0  0  0  0  0  0  0
    4.9840    0.6200    0.0000 C   0  0  0  0  0  0  0  0  0  0  0  0
    6.7160    0.6200    0.0000 C   0  0  0  0  0  0  0  0  0  0  0  0
    4.9840    2.6200    0.0000 C   0  0  0  0  0  0  0  0  0  0  0  0
    4.1180    1.1200    0.0000 C   0  0  0  0  0  0  0  0  0  0  0  0
    4.1180    2.1200    0.0000 C   0  0  0  0  0  0  0  0  0  0  0  0
    8.0680   11.9958    0.0000 H   0  0  0  0  0  0  0  0  0  0  0  0
    3.1793   12.8893    0.0000 H   0  0  0  0  0  0  0  0  0  0  0  0
    2.4156   11.8933    0.0000 H   0  0  0  0  0  0  0  0  0  0  0  0
    3.0200   12.3753    0.0000 H   0  0  0  0  0  0  0  0  0  0  0  0
    3.0200   14.4532    0.0000 H   0  0  0  0  0  0  0  0  0  0  0  0
    2.4156   14.9352    0.0000 H   0  0  0  0  0  0  0  0  0  0  0  0
    0.9559   11.9042    0.0000 H   0  0  0  0  0  0  0  0  0  0  0  0
    1.7096   11.7321    0.0000 H   0  0  0  0  0  0  0  0  0  0  0  0
    1.7096   15.0963    0.0000 H   0  0  0  0  0  0  0  0  0  0  0  0
    0.9559   14.9243    0.0000 H   0  0  0  0  0  0  0  0  0  0  0  0
    7.4571   13.1588    0.0000 H   0  0  0  0  0  0  0  0  0  0  0  0
    6.7668   12.7603    0.0000 H   0  0  0  0  0  0  0  0  0  0  0  0
    8.4003   11.4292    0.0000 H   0  0  0  0  0  0  0  0  0  0  0  0
    9.1894   11.1728    0.0000 H   0  0  0  0  0  0  0  0  0  0  0  0
    0.0544   13.0522    0.0000 H   0  0  0  0  0  0  0  0  0  0  0  0
    0.3898   12.3556    0.0000 H   0  0  0  0  0  0  0  0  0  0  0  0
    0.3898   14.4728    0.0000 H   0  0  0  0  0  0  0  0  0  0  0  0
    0.0544   13.7763    0.0000 H   0  0  0  0  0  0  0  0  0  0  0  0
    6.5395   11.1452    0.0000 H   0  0  0  0  0  0  0  0  0  0  0  0
   10.0172   11.4418    0.0000 H   0  0  0  0  0  0  0  0  0  0  0  0
   10.5049   12.1130    0.0000 H   0  0  0  0  0  0  0  0  0  0  0  0
   10.3899   13.4126    0.0000 H   0  0  0  0  0  0  0  0  0  0  0  0
    5.5395   11.1452    0.0000 H   0  0  0  0  0  0  0  0  0  0  0  0
    7.9694   10.8162    0.0000 H   0  0  0  0  0  0  0  0  0  0  0  0
    5.6594   13.0851    0.0000 H   0  0  0  0  0  0  0  0  0  0  0  0
    7.8244    8.6856    0.0000 H   0  0  0  0  0  0  0  0  0  0  0  0
    7.8244    9.4826    0.0000 H   0  0  0  0  0  0  0  0  0  0  0  0
    7.9694    7.3520    0.0000 H   0  0  0  0  0  0  0  0  0  0  0  0
    7.1594    5.9491    0.0000 H   0  0  0  0  0  0  0  0  0  0  0  0
    5.5395    5.9491    0.0000 H   0  0  0  0  0  0  0  0  0  0  0  0
    4.0395    7.8890    0.0000 H   0  0  0  0  0  0  0  0  0  0  0  0
    2.4532    7.8847    0.0000 H   0  0  0  0  0  0  0  0  0  0  0  0
    0.8660    8.0754    0.0000 H   0  0  0  0  0  0  0  0  0  0  0  0
    0.0000    7.9382    0.0000 H   0  0  0  0  0  0  0  0  0  0  0  0
    0.1372    7.0722    0.0000 H   0  0  0  0  0  0  0  0  0  0  0  0
    6.3869    2.4300    0.0000 H   0  0  0  0  0  0  0  0  0  0  0  0
    4.9840    0.0000    0.0000 H   0  0  0  0  0  0  0  0  0  0  0  0
    6.4060    0.0831    0.0000 H   0  0  0  0  0  0  0  0  0  0  0  0
    7.2530    0.3100    0.0000 H   0  0  0  0  0  0  0  0  0  0  0  0
    7.0260    1.1569    0.0000 H   0  0  0  0  0  0  0  0  0  0  0  0
    3.5810    0.8100    0.0000 H   0  0  0  0  0  0  0  0  0  0  0  0
  1 47  1  0  0  0  0
  2 49  1  0  0  0  0
  3 16  1  0  0  0  0
  3 29  1  0  0  0  0
  4 27  2  0  0  0  0
  5 29  2  0  0  0  0
  6 31  2  0  0  0  0
  7 33  2  0  0  0  0
  8 38  2  0  0  0  0
  9 14  1  0  0  0  0
  9 41  1  0  0  0  0
 10 26  1  0  0  0  0
 10 27  1  0  0  0  0
 10 71  1  0  0  0  0
 25 11  1  6  0  0  0
 11 31  1  0  0  0  0
 11 73  1  0  0  0  0
 12 32  1  0  0  0  0
 12 33  1  0  0  0  0
 12 34  1  0  0  0  0
 13 35  1  0  0  0  0
 13 38  1  0  0  0  0
 13 80  1  0  0  0  0
 14 39  2  0  0  0  0
 15 21  1  0  0  0  0
 15 22  1  0  0  0  0
 15 27  1  0  0  0  0
 15 50  1  0  0  0  0
 16 17  1  0  0  0  0
 16 18  1  0  0  0  0
 16 51  1  0  0  0  0
 17 19  1  0  0  0  0
 17 52  1  0  0  0  0
 17 53  1  0  0  0  0
 18 20  1  0  0  0  0
 18 54  1  0  0  0  0
 18 55  1  0  0  0  0
 19 23  1  0  0  0  0
 19 56  1  0  0  0  0
 19 57  1  0  0  0  0
 20 24  1  0  0  0  0
 20 58  1  0  0  0  0
 20 59  1  0  0  0  0
 21 25  1  0  0  0  0
 21 60  1  0  0  0  0
 21 61  1  0  0  0  0
 22 26  1  0  0  0  0
 22 62  1  0  0  0  0
 22 63  1  0  0  0  0
 23 24  1  0  0  0  0
 23 64  1  0  0  0  0
 23 65  1  0  0  0  0
 24 66  1  0  0  0  0
 24 67  1  0  0  0  0
 25 28  1  0  0  0  0
 25 68  1  0  0  0  0
 26 69  1  0  0  0  0
 26 70  1  0  0  0  0
 28 30  2  0  0  0  0
 28 72  1  0  0  0  0
 29 30  1  0  0  0  0
 30 74  1  0  0  0  0
 31 32  1  0  0  0  0
 32 75  1  0  0  0  0
 32 76  1  0  0  0  0
 33 35  1  0  0  0  0
 34 36  2  0  0  0  0
 34 77  1  0  0  0  0
 35 37  2  0  0  0  0
 36 37  1  0  0  0  0
 36 78  1  0  0  0  0
 37 79  1  0  0  0  0
 38 39  1  0  0  0  0
 39 40  1  0  0  0  0
 40 41  2  0  0  0  0
 40 81  1  0  0  0  0
 41 42  1  0  0  0  0
 42 82  1  0  0  0  0
 42 83  1  0  0  0  0
 42 84  1  0  0  0  0
 43 44  2  0  0  0  0
 43 45  1  0  0  0  0
 43 46  1  0  0  0  0
 44 47  1  0  0  0  0
 44 85  1  0  0  0  0
 45 48  2  0  0  0  0
 45 86  1  0  0  0  0
 46 87  1  0  0  0  0
 46 88  1  0  0  0  0
 46 89  1  0  0  0  0
 47 49  2  0  0  0  0
 48 49  1  0  0  0  0
 48 90  1  0  0  0  0
M  END
> <PUBCHEM_COMPOUND_CID>
142066993

> <PUBCHEM_COMPOUND_CANONICALIZED>
1

> <PUBCHEM_CACTVS_COMPLEXITY>
1160

> <PUBCHEM_CACTVS_HBOND_ACCEPTOR>
10

> <PUBCHEM_CACTVS_HBOND_DONOR>
3

> <PUBCHEM_CACTVS_ROTATABLE_BOND>
11

> <PUBCHEM_CACTVS_SUBSKEYS>
AAADcfB/uYAAAAAAAAAAAAAAAAAAAWLAAAAwQAAABgAAAAABwAAAHwAUAAAADTzhng4yjJPQBACpA6X2WgCCAAAmIgAomKG+bNoIZjqAtbOWMYhmlhiI6ce/wCAOAAAAAAAAAAAAAAAAAAAAAAAAAAAAAA==

> <PUBCHEM_IUPAC_OPENEYE_NAME>
cycloheptyl (E,4S)-4-[[2-[3-[(5-methylisoxazole-3-carbonyl)amino]-2-oxo-1-pyridyl]acetyl]amino]-5-(2-oxopyrrolidin-3-yl)pent-2-enoate;1,2-difluoro-4-methyl-benzene

> <PUBCHEM_IUPAC_CAS_NAME>
1,2-difluoro-4-methylbenzene;(E,4S)-4-[[2-[3-[[(5-methyl-3-isoxazolyl)-oxomethyl]amino]-2-oxo-1-pyridinyl]-1-oxoethyl]amino]-5-(2-oxo-3-pyrrolidinyl)-2-pentenoic acid cycloheptyl ester

> <PUBCHEM_IUPAC_NAME_MARKUP>
cycloheptyl (<I>E</I>,4<I>S</I>)-4-[[2-[3-[(5-methyl-1,2-oxazole-3-carbonyl)amino]-2-oxopyridin-1-yl]acetyl]amino]-5-(2-oxopyrrolidin-3-yl)pent-2-enoate;1,2-difluoro-4-methylbenzene

> <PUBCHEM_IUPAC_NAME>
cycloheptyl (E,4S)-4-[[2-[3-[(5-methyl-1,2-oxazole-3-carbonyl)amino]-2-oxopyridin-1-yl]acetyl]amino]-5-(2-oxopyrrolidin-3-yl)pent-2-enoate;1,2-difluoro-4-methylbenzene

> <PUBCHEM_IUPAC_SYSTEMATIC_NAME>
1,2-bis(fluoranyl)-4-methyl-benzene;cycloheptyl (E,4S)-4-[2-[3-[(5-methyl-1,2-oxazol-3-yl)carbonylamino]-2-oxidanylidene-pyridin-1-yl]ethanoylamino]-5-(2-oxidanylidenepyrrolidin-3-yl)pent-2-enoate

> <PUBCHEM_IUPAC_TRADITIONAL_NAME>
1,2-difluoro-4-methyl-benzene;(E,4S)-4-[[2-[2-keto-3-[(5-methylisoxazole-3-carbonyl)amino]-1-pyridyl]acetyl]amino]-5-(2-ketopyrrolidin-3-yl)pent-2-enoic acid cycloheptyl ester

> <PUBCHEM_IUPAC_INCHI>
InChI=1S/C28H35N5O7.C7H6F2/c1-18-15-23(32-40-18)27(37)31-22-9-6-14-33(28(22)38)17-24(34)30-20(16-19-12-13-29-26(19)36)10-11-25(35)39-21-7-4-2-3-5-8-21;1-5-2-3-6(8)7(9)4-5/h6,9-11,14-15,19-21H,2-5,7-8,12-13,16-17H2,1H3,(H,29,36)(H,30,34)(H,31,37);2-4H,1H3/b11-10+;/t19?,20-;/m1./s1

> <PUBCHEM_IUPAC_INCHIKEY>
CZYNWPLZLIHBNG-YSBIWDJTSA-N

> <PUBCHEM_EXACT_MASS>
681.297405

> <PUBCHEM_MOLECULAR_FORMULA>
C35H41F2N5O7

> <PUBCHEM_MOLECULAR_WEIGHT>
681.7

> <PUBCHEM_OPENEYE_CAN_SMILES>
CC1=CC(=C(C=C1)F)F.CC1=CC(=NO1)C(=O)NC2=CC=CN(C2=O)CC(=O)NC(CC3CCNC3=O)C=CC(=O)OC4CCCCCC4

> <PUBCHEM_OPENEYE_ISO_SMILES>
CC1=CC(=C(C=C1)F)F.CC1=CC(=NO1)C(=O)NC2=CC=CN(C2=O)CC(=O)N[C@@H](CC3CCNC3=O)/C=C/C(=O)OC4CCCCCC4

> <PUBCHEM_CACTVS_TPSA>
160

> <PUBCHEM_MONOISOTOPIC_WEIGHT>
681.297405

> <PUBCHEM_TOTAL_CHARGE>
0

> <PUBCHEM_HEAVY_ATOM_COUNT>
49

> <PUBCHEM_ATOM_DEF_STEREO_COUNT>
1

> <PUBCHEM_ATOM_UDEF_STEREO_COUNT>
1

> <PUBCHEM_BOND_DEF_STEREO_COUNT>
1

> <PUBCHEM_BOND_UDEF_STEREO_COUNT>
0

> <PUBCHEM_ISOTOPIC_ATOM_COUNT>
0

> <PUBCHEM_COMPONENT_COUNT>
2

> <PUBCHEM_CACTVS_TAUTO_COUNT>
-1

> <PUBCHEM_COORDINATE_TYPE>
1
5
255

> <PUBCHEM_BONDANNOTATIONS>
25  11  6
12  33  8
12  34  8
14  39  8
15  21  3
33  35  8
34  36  8
35  37  8
36  37  8
39  40  8
40  41  8
43  44  8
43  45  8
44  47  8
45  48  8
47  49  8
48  49  8
9  14  8
9  41  8

$$$$
142066995
  -OEChem-02212016592D

 87 90  0     1  0  0  0  0  0999 V2000
   13.9343    9.6387    0.0000 F   0  0  0  0  0  0  0  0  0  0  0  0
   12.2023    8.6387    0.0000 F   0  0  0  0  0  0  0  0  0  0  0  0
    4.6539    3.4750    0.0000 O   0  0  0  0  0  0  0  0  0  0  0  0
    7.4794    4.8113    0.0000 O   0  0  0  0  0  0  0  0  0  0  0  0
    6.3859    3.4750    0.0000 O   0  0  0  0  0  0  0  0  0  0  0  0
    6.3859    8.4750    0.0000 O   0  0  0  0  0  0  0  0  0  0  0  0
    2.9218    9.4750    0.0000 O   0  0  0  0  0  0  0  0  0  0  0  0
    3.7879   12.9749    0.0000 O   0  0  0  0  0  0  0  0  0  0  0  0
    0.4731   13.3114    0.0000 O   0  0  0  0  0  0  0  0  0  0  0  0
    9.2007    5.2725    0.0000 N   0  0  0  0  0  0  0  0  0  0  0  0
    5.5199    6.9750    0.0000 N   0  0  0  0  0  0  0  0  0  0  0  0
    4.6539    9.4750    0.0000 N   0  0  0  0  0  0  0  0  0  0  0  0
    2.9218   11.4749    0.0000 N   0  0  0  0  0  0  0  0  0  0  0  0
    1.1423   12.5682    0.0000 N   0  0  0  0  0  0  0  0  0  0  0  0
    8.1180    6.4750    0.0000 C   0  0  2  0  0  0  0  0  0  0  0  0
    4.6539    2.4750    0.0000 C   0  0  0  0  0  0  0  0  0  0  0  0
    3.7879    1.9750    0.0000 C   0  0  0  0  0  0  0  0  0  0  0  0
    5.5199    1.9750    0.0000 C   0  0  0  0  0  0  0  0  0  0  0  0
    3.7879    0.9749    0.0000 C   0  0  0  0  0  0  0  0  0  0  0  0
    5.5199    0.9749    0.0000 C   0  0  0  0  0  0  0  0  0  0  0  0
    4.6539    0.4749    0.0000 C   0  0  0  0  0  0  0  0  0  0  0  0
    7.2520    6.9750    0.0000 C   0  0  0  0  0  0  0  0  0  0  0  0
    9.0315    6.8817    0.0000 C   0  0  0  0  0  0  0  0  0  0  0  0
    6.3859    6.4750    0.0000 C   0  0  1  0  0  0  0  0  0  0  0  0
    9.7007    6.1385    0.0000 C   0  0  0  0  0  0  0  0  0  0  0  0
    8.2225    5.4804    0.0000 C   0  0  0  0  0  0  0  0  0  0  0  0
    6.3859    5.4750    0.0000 C   0  0  0  0  0  0  0  0  0  0  0  0
    5.5199    3.9750    0.0000 C   0  0  0  0  0  0  0  0  0  0  0  0
    5.5199    4.9750    0.0000 C   0  0  0  0  0  0  0  0  0  0  0  0
    5.5199    7.9750    0.0000 C   0  0  0  0  0  0  0  0  0  0  0  0
    4.6539    8.4750    0.0000 C   0  0  0  0  0  0  0  0  0  0  0  0
    3.7879    9.9750    0.0000 C   0  0  0  0  0  0  0  0  0  0  0  0
    5.5199    9.9750    0.0000 C   0  0  0  0  0  0  0  0  0  0  0  0
    3.7879   10.9749    0.0000 C   0  0  0  0  0  0  0  0  0  0  0  0
    5.5199   10.9749    0.0000 C   0  0  0  0  0  0  0  0  0  0  0  0
    4.6539   11.4749    0.0000 C   0  0  0  0  0  0  0  0  0  0  0  0
    2.9218   12.4749    0.0000 C   0  0  0  0  0  0  0  0  0  0  0  0
    2.0558   12.9749    0.0000 C   0  0  0  0  0  0  0  0  0  0  0  0
    1.9513   13.9695    0.0000 C   0  0  0  0  0  0  0  0  0  0  0  0
    0.9731   14.1774    0.0000 C   0  0  0  0  0  0  0  0  0  0  0  0
    0.5664   15.0909    0.0000 C   0  0  0  0  0  0  0  0  0  0  0  0
   14.8003    7.1387    0.0000 C   0  0  0  0  0  0  0  0  0  0  0  0
   14.8003    8.1387    0.0000 C   0  0  0  0  0  0  0  0  0  0  0  0
   13.9343    6.6387    0.0000 C   0  0  0  0  0  0  0  0  0  0  0  0
   15.6664    6.6387    0.0000 C   0  0  0  0  0  0  0  0  0  0  0  0
   13.9343    8.6387    0.0000 C   0  0  0  0  0  0  0  0  0  0  0  0
   13.0683    7.1387    0.0000 C   0  0  0  0  0  0  0  0  0  0  0  0
   13.0683    8.1387    0.0000 C   0  0  0  0  0  0  0  0  0  0  0  0
    7.5980    6.1373    0.0000 H   0  0  0  0  0  0  0  0  0  0  0  0
    4.1170    2.7849    0.0000 H   0  0  0  0  0  0  0  0  0  0  0  0
    3.5758    2.5576    0.0000 H   0  0  0  0  0  0  0  0  0  0  0  0
    3.1773    1.8673    0.0000 H   0  0  0  0  0  0  0  0  0  0  0  0
    6.1305    1.8673    0.0000 H   0  0  0  0  0  0  0  0  0  0  0  0
    5.7320    2.5576    0.0000 H   0  0  0  0  0  0  0  0  0  0  0  0
    3.1773    1.0826    0.0000 H   0  0  0  0  0  0  0  0  0  0  0  0
    3.5758    0.3923    0.0000 H   0  0  0  0  0  0  0  0  0  0  0  0
    5.7320    0.3923    0.0000 H   0  0  0  0  0  0  0  0  0  0  0  0
    6.1305    1.0826    0.0000 H   0  0  0  0  0  0  0  0  0  0  0  0
    4.2554    0.0000    0.0000 H   0  0  0  0  0  0  0  0  0  0  0  0
    5.0524    0.0000    0.0000 H   0  0  0  0  0  0  0  0  0  0  0  0
    7.6505    7.4499    0.0000 H   0  0  0  0  0  0  0  0  0  0  0  0
    6.8534    7.4499    0.0000 H   0  0  0  0  0  0  0  0  0  0  0  0
    9.5331    7.2461    0.0000 H   0  0  0  0  0  0  0  0  0  0  0  0
    8.7215    7.4186    0.0000 H   0  0  0  0  0  0  0  0  0  0  0  0
    5.8490    6.1650    0.0000 H   0  0  0  0  0  0  0  0  0  0  0  0
   10.2023    5.7741    0.0000 H   0  0  0  0  0  0  0  0  0  0  0  0
   10.1155    6.5993    0.0000 H   0  0  0  0  0  0  0  0  0  0  0  0
    9.4528    4.7061    0.0000 H   0  0  0  0  0  0  0  0  0  0  0  0
    6.9229    5.1650    0.0000 H   0  0  0  0  0  0  0  0  0  0  0  0
    4.9830    6.6650    0.0000 H   0  0  0  0  0  0  0  0  0  0  0  0
    4.9830    5.2850    0.0000 H   0  0  0  0  0  0  0  0  0  0  0  0
    4.0433    8.5826    0.0000 H   0  0  0  0  0  0  0  0  0  0  0  0
    4.4418    7.8923    0.0000 H   0  0  0  0  0  0  0  0  0  0  0  0
    6.0568    9.6649    0.0000 H   0  0  0  0  0  0  0  0  0  0  0  0
    6.0568   11.2849    0.0000 H   0  0  0  0  0  0  0  0  0  0  0  0
    4.6539   12.0949    0.0000 H   0  0  0  0  0  0  0  0  0  0  0  0
    2.3849   11.1649    0.0000 H   0  0  0  0  0  0  0  0  0  0  0  0
    2.4120   14.3843    0.0000 H   0  0  0  0  0  0  0  0  0  0  0  0
    1.1328   15.3431    0.0000 H   0  0  0  0  0  0  0  0  0  0  0  0
    0.3142   15.6573    0.0000 H   0  0  0  0  0  0  0  0  0  0  0  0
    0.0000   14.8387    0.0000 H   0  0  0  0  0  0  0  0  0  0  0  0
   15.3373    8.4487    0.0000 H   0  0  0  0  0  0  0  0  0  0  0  0
   13.9343    6.0187    0.0000 H   0  0  0  0  0  0  0  0  0  0  0  0
   15.3564    6.1017    0.0000 H   0  0  0  0  0  0  0  0  0  0  0  0
   16.2033    6.3287    0.0000 H   0  0  0  0  0  0  0  0  0  0  0  0
   15.9764    7.1756    0.0000 H   0  0  0  0  0  0  0  0  0  0  0  0
   12.5313    6.8287    0.0000 H   0  0  0  0  0  0  0  0  0  0  0  0
  1 46  1  0  0  0  0
  2 48  1  0  0  0  0
  3 16  1  0  0  0  0
  3 28  1  0  0  0  0
  4 26  2  0  0  0  0
  5 28  2  0  0  0  0
  6 30  2  0  0  0  0
  7 32  2  0  0  0  0
  8 37  2  0  0  0  0
  9 14  1  0  0  0  0
  9 40  1  0  0  0  0
 10 25  1  0  0  0  0
 10 26  1  0  0  0  0
 10 68  1  0  0  0  0
 24 11  1  1  0  0  0
 11 30  1  0  0  0  0
 11 70  1  0  0  0  0
 12 31  1  0  0  0  0
 12 32  1  0  0  0  0
 12 33  1  0  0  0  0
 13 34  1  0  0  0  0
 13 37  1  0  0  0  0
 13 77  1  0  0  0  0
 14 38  2  0  0  0  0
 15 22  1  6  0  0  0
 15 23  1  0  0  0  0
 15 26  1  0  0  0  0
 15 49  1  0  0  0  0
 16 17  1  0  0  0  0
 16 18  1  0  0  0  0
 16 50  1  0  0  0  0
 17 19  1  0  0  0  0
 17 51  1  0  0  0  0
 17 52  1  0  0  0  0
 18 20  1  0  0  0  0
 18 53  1  0  0  0  0
 18 54  1  0  0  0  0
 19 21  1  0  0  0  0
 19 55  1  0  0  0  0
 19 56  1  0  0  0  0
 20 21  1  0  0  0  0
 20 57  1  0  0  0  0
 20 58  1  0  0  0  0
 21 59  1  0  0  0  0
 21 60  1  0  0  0  0
 22 24  1  0  0  0  0
 22 61  1  0  0  0  0
 22 62  1  0  0  0  0
 23 25  1  0  0  0  0
 23 63  1  0  0  0  0
 23 64  1  0  0  0  0
 24 27  1  0  0  0  0
 24 65  1  0  0  0  0
 25 66  1  0  0  0  0
 25 67  1  0  0  0  0
 27 29  2  0  0  0  0
 27 69  1  0  0  0  0
 28 29  1  0  0  0  0
 29 71  1  0  0  0  0
 30 31  1  0  0  0  0
 31 72  1  0  0  0  0
 31 73  1  0  0  0  0
 32 34  1  0  0  0  0
 33 35  2  0  0  0  0
 33 74  1  0  0  0  0
 34 36  2  0  0  0  0
 35 36  1  0  0  0  0
 35 75  1  0  0  0  0
 36 76  1  0  0  0  0
 37 38  1  0  0  0  0
 38 39  1  0  0  0  0
 39 40  2  0  0  0  0
 39 78  1  0  0  0  0
 40 41  1  0  0  0  0
 41 79  1  0  0  0  0
 41 80  1  0  0  0  0
 41 81  1  0  0  0  0
 42 43  2  0  0  0  0
 42 44  1  0  0  0  0
 42 45  1  0  0  0  0
 43 46  1  0  0  0  0
 43 82  1  0  0  0  0
 44 47  2  0  0  0  0
 44 83  1  0  0  0  0
 45 84  1  0  0  0  0
 45 85  1  0  0  0  0
 45 86  1  0  0  0  0
 46 48  2  0  0  0  0
 47 48  1  0  0  0  0
 47 87  1  0  0  0  0
M  END
> <PUBCHEM_COMPOUND_CID>
142066995

> <PUBCHEM_COMPOUND_CANONICALIZED>
1

> <PUBCHEM_CACTVS_COMPLEXITY>
1140

> <PUBCHEM_CACTVS_HBOND_ACCEPTOR>
10

> <PUBCHEM_CACTVS_HBOND_DONOR>
3

> <PUBCHEM_CACTVS_ROTATABLE_BOND>
11

> <PUBCHEM_CACTVS_SUBSKEYS>
AAADcfB/uYAAAAAAAAAAAAAAAAAAAWLAAAAwYIAAAAAAAAABwAAAHwAUAAAADTzhng4yjJPQBACpA6X2WgCCAAAmIgAomKG+bNoIZjqAtbOWMYhmlhiI6ce/wAAOAAAAAAAAAAAAAAAAAAAAAAAAAAAAAA==

> <PUBCHEM_IUPAC_OPENEYE_NAME>
cyclohexyl (E,4S)-4-[[2-[3-[(5-methylisoxazole-3-carbonyl)amino]-2-oxo-1-pyridyl]acetyl]amino]-5-[(3S)-2-oxopyrrolidin-3-yl]pent-2-enoate;1,2-difluoro-4-methyl-benzene

> <PUBCHEM_IUPAC_CAS_NAME>
1,2-difluoro-4-methylbenzene;(E,4S)-4-[[2-[3-[[(5-methyl-3-isoxazolyl)-oxomethyl]amino]-2-oxo-1-pyridinyl]-1-oxoethyl]amino]-5-[(3S)-2-oxo-3-pyrrolidinyl]-2-pentenoic acid cyclohexyl ester

> <PUBCHEM_IUPAC_NAME_MARKUP>
cyclohexyl (<I>E</I>,4<I>S</I>)-4-[[2-[3-[(5-methyl-1,2-oxazole-3-carbonyl)amino]-2-oxopyridin-1-yl]acetyl]amino]-5-[(3<I>S</I>)-2-oxopyrrolidin-3-yl]pent-2-enoate;1,2-difluoro-4-methylbenzene

> <PUBCHEM_IUPAC_NAME>
cyclohexyl (E,4S)-4-[[2-[3-[(5-methyl-1,2-oxazole-3-carbonyl)amino]-2-oxopyridin-1-yl]acetyl]amino]-5-[(3S)-2-oxopyrrolidin-3-yl]pent-2-enoate;1,2-difluoro-4-methylbenzene

> <PUBCHEM_IUPAC_SYSTEMATIC_NAME>
1,2-bis(fluoranyl)-4-methyl-benzene;cyclohexyl (E,4S)-4-[2-[3-[(5-methyl-1,2-oxazol-3-yl)carbonylamino]-2-oxidanylidene-pyridin-1-yl]ethanoylamino]-5-[(3S)-2-oxidanylidenepyrrolidin-3-yl]pent-2-enoate

> <PUBCHEM_IUPAC_TRADITIONAL_NAME>
1,2-difluoro-4-methyl-benzene;(E,4S)-4-[[2-[2-keto-3-[(5-methylisoxazole-3-carbonyl)amino]-1-pyridyl]acetyl]amino]-5-[(3S)-2-ketopyrrolidin-3-yl]pent-2-enoic acid cyclohexyl ester

> <PUBCHEM_IUPAC_INCHI>
InChI=1S/C27H33N5O7.C7H6F2/c1-17-14-22(31-39-17)26(36)30-21-8-5-13-32(27(21)37)16-23(33)29-19(15-18-11-12-28-25(18)35)9-10-24(34)38-20-6-3-2-4-7-20;1-5-2-3-6(8)7(9)4-5/h5,8-10,13-14,18-20H,2-4,6-7,11-12,15-16H2,1H3,(H,28,35)(H,29,33)(H,30,36);2-4H,1H3/b10-9+;/t18-,19+;/m0./s1

> <PUBCHEM_IUPAC_INCHIKEY>
WAYYTSDQYOWNOL-IERHRMSMSA-N

> <PUBCHEM_EXACT_MASS>
667.281755

> <PUBCHEM_MOLECULAR_FORMULA>
C34H39F2N5O7

> <PUBCHEM_MOLECULAR_WEIGHT>
667.7

> <PUBCHEM_OPENEYE_CAN_SMILES>
CC1=CC(=C(C=C1)F)F.CC1=CC(=NO1)C(=O)NC2=CC=CN(C2=O)CC(=O)NC(CC3CCNC3=O)C=CC(=O)OC4CCCCC4

> <PUBCHEM_OPENEYE_ISO_SMILES>
CC1=CC(=C(C=C1)F)F.CC1=CC(=NO1)C(=O)NC2=CC=CN(C2=O)CC(=O)N[C@@H](C[C@@H]3CCNC3=O)/C=C/C(=O)OC4CCCCC4

> <PUBCHEM_CACTVS_TPSA>
160

> <PUBCHEM_MONOISOTOPIC_WEIGHT>
667.281755

> <PUBCHEM_TOTAL_CHARGE>
0

> <PUBCHEM_HEAVY_ATOM_COUNT>
48

> <PUBCHEM_ATOM_DEF_STEREO_COUNT>
2

> <PUBCHEM_ATOM_UDEF_STEREO_COUNT>
0

> <PUBCHEM_BOND_DEF_STEREO_COUNT>
1

> <PUBCHEM_BOND_UDEF_STEREO_COUNT>
0

> <PUBCHEM_ISOTOPIC_ATOM_COUNT>
0

> <PUBCHEM_COMPONENT_COUNT>
2

> <PUBCHEM_CACTVS_TAUTO_COUNT>
-1

> <PUBCHEM_COORDINATE_TYPE>
1
5
255

> <PUBCHEM_BONDANNOTATIONS>
24  11  5
12  32  8
12  33  8
14  38  8
15  22  6
32  34  8
33  35  8
34  36  8
35  36  8
38  39  8
39  40  8
42  43  8
42  44  8
43  46  8
44  47  8
46  48  8
47  48  8
9  14  8
9  40  8

$$$$
142067001
  -OEChem-02212016592D

 76 78  0     1  0  0  0  0  0999 V2000
   12.2853    4.9563    0.0000 O   0  0  0  0  0  0  0  0  0  0  0  0
   11.1919    8.6200    0.0000 O   0  0  0  0  0  0  0  0  0  0  0  0
    9.4598    3.6200    0.0000 O   0  0  0  0  0  0  0  0  0  0  0  0
   11.1919    3.6200    0.0000 O   0  0  0  0  0  0  0  0  0  0  0  0
    7.7278    9.6200    0.0000 O   0  0  0  0  0  0  0  0  0  0  0  0
    8.5938   13.1200    0.0000 O   0  0  0  0  0  0  0  0  0  0  0  0
    5.2791   13.4564    0.0000 O   0  0  0  0  0  0  0  0  0  0  0  0
   14.0066    5.4176    0.0000 N   0  0  0  0  0  0  0  0  0  0  0  0
   10.3258    7.1200    0.0000 N   0  0  0  0  0  0  0  0  0  0  0  0
    9.4598    9.6200    0.0000 N   0  0  0  0  0  0  0  0  0  0  0  0
    7.7278   11.6200    0.0000 N   0  0  0  0  0  0  0  0  0  0  0  0
    5.9482   12.7133    0.0000 N   0  0  0  0  0  0  0  0  0  0  0  0
   12.9239    6.6200    0.0000 C   0  0  3  0  0  0  0  0  0  0  0  0
   13.8375    7.0267    0.0000 C   0  0  0  0  0  0  0  0  0  0  0  0
   12.0579    7.1200    0.0000 C   0  0  0  0  0  0  0  0  0  0  0  0
   14.5066    6.2836    0.0000 C   0  0  0  0  0  0  0  0  0  0  0  0
   11.1919    6.6200    0.0000 C   0  0  1  0  0  0  0  0  0  0  0  0
   13.0284    5.6255    0.0000 C   0  0  0  0  0  0  0  0  0  0  0  0
   11.1919    5.6200    0.0000 C   0  0  0  0  0  0  0  0  0  0  0  0
   10.3258    8.1200    0.0000 C   0  0  0  0  0  0  0  0  0  0  0  0
   10.3258    5.1200    0.0000 C   0  0  0  0  0  0  0  0  0  0  0  0
    9.4598    8.6200    0.0000 C   0  0  0  0  0  0  0  0  0  0  0  0
   10.3258    4.1200    0.0000 C   0  0  0  0  0  0  0  0  0  0  0  0
    8.5938   10.1200    0.0000 C   0  0  0  0  0  0  0  0  0  0  0  0
   10.3258   10.1200    0.0000 C   0  0  0  0  0  0  0  0  0  0  0  0
    8.5938   11.1200    0.0000 C   0  0  0  0  0  0  0  0  0  0  0  0
   10.3258   11.1200    0.0000 C   0  0  0  0  0  0  0  0  0  0  0  0
    9.4598   11.6200    0.0000 C   0  0  0  0  0  0  0  0  0  0  0  0
    9.4598    2.6200    0.0000 C   0  0  0  0  0  0  0  0  0  0  0  0
    8.5938    2.1200    0.0000 C   0  0  0  0  0  0  0  0  0  0  0  0
    7.7278   12.6200    0.0000 C   0  0  0  0  0  0  0  0  0  0  0  0
    8.5938    1.1200    0.0000 C   0  0  0  0  0  0  0  0  0  0  0  0
    7.7278    2.6200    0.0000 C   0  0  0  0  0  0  0  0  0  0  0  0
    6.8617   13.1200    0.0000 C   0  0  0  0  0  0  0  0  0  0  0  0
    7.7278    0.6200    0.0000 C   0  0  0  0  0  0  0  0  0  0  0  0
    6.8617    2.1200    0.0000 C   0  0  0  0  0  0  0  0  0  0  0  0
    6.7572   14.1145    0.0000 C   0  0  0  0  0  0  0  0  0  0  0  0
    6.8617    1.1200    0.0000 C   0  0  0  0  0  0  0  0  0  0  0  0
    5.7791   14.3224    0.0000 C   0  0  0  0  0  0  0  0  0  0  0  0
    5.3723   15.2360    0.0000 C   0  0  0  0  0  0  0  0  0  0  0  0
    2.2690    8.2877    0.0000 C   0  0  0  0  0  0  0  0  0  0  0  0
    1.4030    7.7877    0.0000 C   0  0  0  0  0  0  0  0  0  0  0  0
    0.5369    7.2877    0.0000 C   0  0  0  0  0  0  0  0  0  0  0  0
   12.4039    6.2823    0.0000 H   0  0  0  0  0  0  0  0  0  0  0  0
   14.3390    7.3912    0.0000 H   0  0  0  0  0  0  0  0  0  0  0  0
   13.5275    7.5637    0.0000 H   0  0  0  0  0  0  0  0  0  0  0  0
   12.4564    7.5950    0.0000 H   0  0  0  0  0  0  0  0  0  0  0  0
   11.6594    7.5950    0.0000 H   0  0  0  0  0  0  0  0  0  0  0  0
   15.0082    5.9192    0.0000 H   0  0  0  0  0  0  0  0  0  0  0  0
   14.9214    6.7443    0.0000 H   0  0  0  0  0  0  0  0  0  0  0  0
   11.1919    7.2400    0.0000 H   0  0  0  0  0  0  0  0  0  0  0  0
   14.2588    4.8512    0.0000 H   0  0  0  0  0  0  0  0  0  0  0  0
    9.7889    6.8100    0.0000 H   0  0  0  0  0  0  0  0  0  0  0  0
   11.7288    5.3100    0.0000 H   0  0  0  0  0  0  0  0  0  0  0  0
    9.7889    5.4300    0.0000 H   0  0  0  0  0  0  0  0  0  0  0  0
    8.8492    8.7277    0.0000 H   0  0  0  0  0  0  0  0  0  0  0  0
    9.2478    8.0374    0.0000 H   0  0  0  0  0  0  0  0  0  0  0  0
   10.8628    9.8100    0.0000 H   0  0  0  0  0  0  0  0  0  0  0  0
   10.8628   11.4300    0.0000 H   0  0  0  0  0  0  0  0  0  0  0  0
    9.4598   12.2400    0.0000 H   0  0  0  0  0  0  0  0  0  0  0  0
    9.6719    2.0374    0.0000 H   0  0  0  0  0  0  0  0  0  0  0  0
   10.0704    2.7277    0.0000 H   0  0  0  0  0  0  0  0  0  0  0  0
    7.1908   11.3100    0.0000 H   0  0  0  0  0  0  0  0  0  0  0  0
    9.1307    0.8100    0.0000 H   0  0  0  0  0  0  0  0  0  0  0  0
    7.7278    3.2400    0.0000 H   0  0  0  0  0  0  0  0  0  0  0  0
    7.7278    0.0000    0.0000 H   0  0  0  0  0  0  0  0  0  0  0  0
    6.3248    2.4300    0.0000 H   0  0  0  0  0  0  0  0  0  0  0  0
    7.2180   14.5294    0.0000 H   0  0  0  0  0  0  0  0  0  0  0  0
    6.3248    0.8100    0.0000 H   0  0  0  0  0  0  0  0  0  0  0  0
    5.9387   15.4882    0.0000 H   0  0  0  0  0  0  0  0  0  0  0  0
    5.1201   15.8024    0.0000 H   0  0  0  0  0  0  0  0  0  0  0  0
    4.8059   14.9838    0.0000 H   0  0  0  0  0  0  0  0  0  0  0  0
    2.5790    7.7508    0.0000 H   0  0  0  0  0  0  0  0  0  0  0  0
    2.8059    8.5977    0.0000 H   0  0  0  0  0  0  0  0  0  0  0  0
    1.9590    8.8247    0.0000 H   0  0  0  0  0  0  0  0  0  0  0  0
    0.0000    6.9777    0.0000 H   0  0  0  0  0  0  0  0  0  0  0  0
  1 18  2  0  0  0  0
  2 20  2  0  0  0  0
  3 23  1  0  0  0  0
  3 29  1  0  0  0  0
  4 23  2  0  0  0  0
  5 24  2  0  0  0  0
  6 31  2  0  0  0  0
  7 12  1  0  0  0  0
  7 39  1  0  0  0  0
  8 16  1  0  0  0  0
  8 18  1  0  0  0  0
  8 52  1  0  0  0  0
 17  9  1  1  0  0  0
  9 20  1  0  0  0  0
  9 53  1  0  0  0  0
 10 22  1  0  0  0  0
 10 24  1  0  0  0  0
 10 25  1  0  0  0  0
 11 26  1  0  0  0  0
 11 31  1  0  0  0  0
 11 63  1  0  0  0  0
 12 34  2  0  0  0  0
 13 14  1  0  0  0  0
 13 15  1  0  0  0  0
 13 18  1  0  0  0  0
 13 44  1  0  0  0  0
 14 16  1  0  0  0  0
 14 45  1  0  0  0  0
 14 46  1  0  0  0  0
 15 17  1  0  0  0  0
 15 47  1  0  0  0  0
 15 48  1  0  0  0  0
 16 49  1  0  0  0  0
 16 50  1  0  0  0  0
 17 19  1  0  0  0  0
 17 51  1  0  0  0  0
 19 21  2  0  0  0  0
 19 54  1  0  0  0  0
 20 22  1  0  0  0  0
 21 23  1  0  0  0  0
 21 55  1  0  0  0  0
 22 56  1  0  0  0  0
 22 57  1  0  0  0  0
 24 26  1  0  0  0  0
 25 27  2  0  0  0  0
 25 58  1  0  0  0  0
 26 28  2  0  0  0  0
 27 28  1  0  0  0  0
 27 59  1  0  0  0  0
 28 60  1  0  0  0  0
 29 30  1  0  0  0  0
 29 61  1  0  0  0  0
 29 62  1  0  0  0  0
 30 32  2  0  0  0  0
 30 33  1  0  0  0  0
 31 34  1  0  0  0  0
 32 35  1  0  0  0  0
 32 64  1  0  0  0  0
 33 36  2  0  0  0  0
 33 65  1  0  0  0  0
 34 37  1  0  0  0  0
 35 38  2  0  0  0  0
 35 66  1  0  0  0  0
 36 38  1  0  0  0  0
 36 67  1  0  0  0  0
 37 39  2  0  0  0  0
 37 68  1  0  0  0  0
 38 69  1  0  0  0  0
 39 40  1  0  0  0  0
 40 70  1  0  0  0  0
 40 71  1  0  0  0  0
 40 72  1  0  0  0  0
 41 42  1  0  0  0  0
 41 73  1  0  0  0  0
 41 74  1  0  0  0  0
 41 75  1  0  0  0  0
 42 43  3  0  0  0  0
 43 76  1  0  0  0  0
M  END
> <PUBCHEM_COMPOUND_CID>
142067001

> <PUBCHEM_COMPOUND_CANONICALIZED>
1

> <PUBCHEM_CACTVS_COMPLEXITY>
1090

> <PUBCHEM_CACTVS_HBOND_ACCEPTOR>
8

> <PUBCHEM_CACTVS_HBOND_DONOR>
3

> <PUBCHEM_CACTVS_ROTATABLE_BOND>
12

> <PUBCHEM_CACTVS_SUBSKEYS>
AAADcfB7uAAAAAAAAAAAAAAAAAAAAWLAAAAwQAAAAAAAAAABwAAAHgAUAAAADSzhngYyjJPQBADpG6X2WgCCAAAmIgAomKG+bNoIZjqAtbuWMYhm1hmI6ce/wCAOAAAAAAAAAAAAAAAAAAAAAAAAAAAAAA==

> <PUBCHEM_IUPAC_OPENEYE_NAME>
benzyl (E,4S)-4-[[2-[3-[(5-methylisoxazole-3-carbonyl)amino]-2-oxo-1-pyridyl]acetyl]amino]-5-(2-oxopyrrolidin-3-yl)pent-2-enoate;prop-1-yne

> <PUBCHEM_IUPAC_CAS_NAME>
(E,4S)-4-[[2-[3-[[(5-methyl-3-isoxazolyl)-oxomethyl]amino]-2-oxo-1-pyridinyl]-1-oxoethyl]amino]-5-(2-oxo-3-pyrrolidinyl)-2-pentenoic acid (phenylmethyl) ester;1-propyne

> <PUBCHEM_IUPAC_NAME_MARKUP>
benzyl (<I>E</I>,4<I>S</I>)-4-[[2-[3-[(5-methyl-1,2-oxazole-3-carbonyl)amino]-2-oxopyridin-1-yl]acetyl]amino]-5-(2-oxopyrrolidin-3-yl)pent-2-enoate;prop-1-yne

> <PUBCHEM_IUPAC_NAME>
benzyl (E,4S)-4-[[2-[3-[(5-methyl-1,2-oxazole-3-carbonyl)amino]-2-oxopyridin-1-yl]acetyl]amino]-5-(2-oxopyrrolidin-3-yl)pent-2-enoate;prop-1-yne

> <PUBCHEM_IUPAC_SYSTEMATIC_NAME>
(phenylmethyl) (E,4S)-4-[2-[3-[(5-methyl-1,2-oxazol-3-yl)carbonylamino]-2-oxidanylidene-pyridin-1-yl]ethanoylamino]-5-(2-oxidanylidenepyrrolidin-3-yl)pent-2-enoate;prop-1-yne

> <PUBCHEM_IUPAC_TRADITIONAL_NAME>
(E,4S)-4-[[2-[2-keto-3-[(5-methylisoxazole-3-carbonyl)amino]-1-pyridyl]acetyl]amino]-5-(2-ketopyrrolidin-3-yl)pent-2-enoic acid benzyl ester;prop-1-yne

> <PUBCHEM_IUPAC_INCHI>
InChI=1S/C28H29N5O7.C3H4/c1-18-14-23(32-40-18)27(37)31-22-8-5-13-33(28(22)38)16-24(34)30-21(15-20-11-12-29-26(20)36)9-10-25(35)39-17-19-6-3-2-4-7-19;1-3-2/h2-10,13-14,20-21H,11-12,15-17H2,1H3,(H,29,36)(H,30,34)(H,31,37);1H,2H3/b10-9+;/t20?,21-;/m1./s1

> <PUBCHEM_IUPAC_INCHIKEY>
ZDWGFUFTNQKCRS-FVRIWXDQSA-N

> <PUBCHEM_EXACT_MASS>
587.237998

> <PUBCHEM_MOLECULAR_FORMULA>
C31H33N5O7

> <PUBCHEM_MOLECULAR_WEIGHT>
587.6

> <PUBCHEM_OPENEYE_CAN_SMILES>
CC#C.CC1=CC(=NO1)C(=O)NC2=CC=CN(C2=O)CC(=O)NC(CC3CCNC3=O)C=CC(=O)OCC4=CC=CC=C4

> <PUBCHEM_OPENEYE_ISO_SMILES>
CC#C.CC1=CC(=NO1)C(=O)NC2=CC=CN(C2=O)CC(=O)N[C@@H](CC3CCNC3=O)/C=C/C(=O)OCC4=CC=CC=C4

> <PUBCHEM_CACTVS_TPSA>
160

> <PUBCHEM_MONOISOTOPIC_WEIGHT>
587.237998

> <PUBCHEM_TOTAL_CHARGE>
0

> <PUBCHEM_HEAVY_ATOM_COUNT>
43

> <PUBCHEM_ATOM_DEF_STEREO_COUNT>
1

> <PUBCHEM_ATOM_UDEF_STEREO_COUNT>
1

> <PUBCHEM_BOND_DEF_STEREO_COUNT>
1

> <PUBCHEM_BOND_UDEF_STEREO_COUNT>
0

> <PUBCHEM_ISOTOPIC_ATOM_COUNT>
0

> <PUBCHEM_COMPONENT_COUNT>
2

> <PUBCHEM_CACTVS_TAUTO_COUNT>
-1

> <PUBCHEM_COORDINATE_TYPE>
1
5
255

> <PUBCHEM_BONDANNOTATIONS>
10  24  8
10  25  8
12  34  8
13  15  3
24  26  8
25  27  8
26  28  8
27  28  8
30  32  8
30  33  8
32  35  8
33  36  8
34  37  8
35  38  8
36  38  8
37  39  8
7  12  8
7  39  8
17  9  5

$$$$
142067002
  -OEChem-02212016592D

 69 72  0     1  0  0  0  0  0999 V2000
    9.0062   -2.9716    0.0000 O   0  0  0  0  0  0  0  0  0  0  0  0
    7.9128    0.6920    0.0000 O   0  0  0  0  0  0  0  0  0  0  0  0
    6.1808   -4.3080    0.0000 O   0  0  0  0  0  0  0  0  0  0  0  0
    7.9128   -4.3080    0.0000 O   0  0  0  0  0  0  0  0  0  0  0  0
    4.4487    1.6920    0.0000 O   0  0  0  0  0  0  0  0  0  0  0  0
    5.3147    5.1920    0.0000 O   0  0  0  0  0  0  0  0  0  0  0  0
    2.0000    5.5284    0.0000 O   0  0  0  0  0  0  0  0  0  0  0  0
   10.7275   -2.5104    0.0000 N   0  0  0  0  0  0  0  0  0  0  0  0
    7.0468   -0.8080    0.0000 N   0  0  0  0  0  0  0  0  0  0  0  0
    6.1808    1.6920    0.0000 N   0  0  0  0  0  0  0  0  0  0  0  0
    4.4487    3.6920    0.0000 N   0  0  0  0  0  0  0  0  0  0  0  0
    2.6691    4.7853    0.0000 N   0  0  0  0  0  0  0  0  0  0  0  0
    9.6448   -1.3080    0.0000 C   0  0  3  0  0  0  0  0  0  0  0  0
   10.5584   -0.9013    0.0000 C   0  0  0  0  0  0  0  0  0  0  0  0
    8.7788   -0.8080    0.0000 C   0  0  0  0  0  0  0  0  0  0  0  0
   11.2275   -1.6444    0.0000 C   0  0  0  0  0  0  0  0  0  0  0  0
    7.9128   -1.3080    0.0000 C   0  0  1  0  0  0  0  0  0  0  0  0
    9.7494   -2.3025    0.0000 C   0  0  0  0  0  0  0  0  0  0  0  0
    7.9128   -2.3080    0.0000 C   0  0  0  0  0  0  0  0  0  0  0  0
    7.0468    0.1920    0.0000 C   0  0  0  0  0  0  0  0  0  0  0  0
    7.0468   -2.8080    0.0000 C   0  0  0  0  0  0  0  0  0  0  0  0
    6.1808    0.6920    0.0000 C   0  0  0  0  0  0  0  0  0  0  0  0
    7.0468   -3.8080    0.0000 C   0  0  0  0  0  0  0  0  0  0  0  0
    5.3147    2.1920    0.0000 C   0  0  0  0  0  0  0  0  0  0  0  0
    7.0468    2.1920    0.0000 C   0  0  0  0  0  0  0  0  0  0  0  0
    5.3147    3.1920    0.0000 C   0  0  0  0  0  0  0  0  0  0  0  0
    7.0468    3.1920    0.0000 C   0  0  0  0  0  0  0  0  0  0  0  0
    6.1808    3.6920    0.0000 C   0  0  0  0  0  0  0  0  0  0  0  0
    6.1808   -5.3080    0.0000 C   0  0  0  0  0  0  0  0  0  0  0  0
    5.3147   -5.8080    0.0000 C   0  0  0  0  0  0  0  0  0  0  0  0
    4.4487    4.6920    0.0000 C   0  0  0  0  0  0  0  0  0  0  0  0
    5.3147   -6.8080    0.0000 C   0  0  0  0  0  0  0  0  0  0  0  0
    4.4487   -5.3080    0.0000 C   0  0  0  0  0  0  0  0  0  0  0  0
    3.5827    5.1920    0.0000 C   0  0  0  0  0  0  0  0  0  0  0  0
    4.4487   -7.3080    0.0000 C   0  0  0  0  0  0  0  0  0  0  0  0
    3.5827   -5.8080    0.0000 C   0  0  0  0  0  0  0  0  0  0  0  0
    3.4782    6.1865    0.0000 C   0  0  0  0  0  0  0  0  0  0  0  0
    3.5827   -6.8080    0.0000 C   0  0  0  0  0  0  0  0  0  0  0  0
    2.5000    6.3944    0.0000 C   0  0  0  0  0  0  0  0  0  0  0  0
    2.0933    7.3080    0.0000 C   0  0  0  0  0  0  0  0  0  0  0  0
    9.1249   -1.6457    0.0000 H   0  0  0  0  0  0  0  0  0  0  0  0
   11.0600   -0.5368    0.0000 H   0  0  0  0  0  0  0  0  0  0  0  0
   10.2484   -0.3643    0.0000 H   0  0  0  0  0  0  0  0  0  0  0  0
    9.1774   -0.3330    0.0000 H   0  0  0  0  0  0  0  0  0  0  0  0
    8.3803   -0.3330    0.0000 H   0  0  0  0  0  0  0  0  0  0  0  0
   11.7291   -2.0088    0.0000 H   0  0  0  0  0  0  0  0  0  0  0  0
   11.6424   -1.1836    0.0000 H   0  0  0  0  0  0  0  0  0  0  0  0
    7.9128   -0.6880    0.0000 H   0  0  0  0  0  0  0  0  0  0  0  0
   10.9797   -3.0768    0.0000 H   0  0  0  0  0  0  0  0  0  0  0  0
    6.5098   -1.1180    0.0000 H   0  0  0  0  0  0  0  0  0  0  0  0
    8.4497   -2.6180    0.0000 H   0  0  0  0  0  0  0  0  0  0  0  0
    6.5098   -2.4980    0.0000 H   0  0  0  0  0  0  0  0  0  0  0  0
    5.5702    0.7997    0.0000 H   0  0  0  0  0  0  0  0  0  0  0  0
    5.9687    0.1094    0.0000 H   0  0  0  0  0  0  0  0  0  0  0  0
    7.5837    1.8820    0.0000 H   0  0  0  0  0  0  0  0  0  0  0  0
    7.5837    3.5020    0.0000 H   0  0  0  0  0  0  0  0  0  0  0  0
    6.1808    4.3120    0.0000 H   0  0  0  0  0  0  0  0  0  0  0  0
    6.3928   -5.8906    0.0000 H   0  0  0  0  0  0  0  0  0  0  0  0
    6.7913   -5.2003    0.0000 H   0  0  0  0  0  0  0  0  0  0  0  0
    3.9118    3.3820    0.0000 H   0  0  0  0  0  0  0  0  0  0  0  0
    5.8517   -7.1180    0.0000 H   0  0  0  0  0  0  0  0  0  0  0  0
    4.4487   -4.6880    0.0000 H   0  0  0  0  0  0  0  0  0  0  0  0
    3.9389    6.6014    0.0000 H   0  0  0  0  0  0  0  0  0  0  0  0
    4.4487   -7.9280    0.0000 H   0  0  0  0  0  0  0  0  0  0  0  0
    3.0457   -5.4980    0.0000 H   0  0  0  0  0  0  0  0  0  0  0  0
    3.0457   -7.1180    0.0000 H   0  0  0  0  0  0  0  0  0  0  0  0
    2.6597    7.5602    0.0000 H   0  0  0  0  0  0  0  0  0  0  0  0
    1.8411    7.8744    0.0000 H   0  0  0  0  0  0  0  0  0  0  0  0
    1.5269    7.0558    0.0000 H   0  0  0  0  0  0  0  0  0  0  0  0
  1 18  2  0  0  0  0
  2 20  2  0  0  0  0
  3 23  1  0  0  0  0
  3 29  1  0  0  0  0
  4 23  2  0  0  0  0
  5 24  2  0  0  0  0
  6 31  2  0  0  0  0
  7 12  1  0  0  0  0
  7 39  1  0  0  0  0
  8 16  1  0  0  0  0
  8 18  1  0  0  0  0
  8 49  1  0  0  0  0
 17  9  1  1  0  0  0
  9 20  1  0  0  0  0
  9 50  1  0  0  0  0
 10 22  1  0  0  0  0
 10 24  1  0  0  0  0
 10 25  1  0  0  0  0
 11 26  1  0  0  0  0
 11 31  1  0  0  0  0
 11 60  1  0  0  0  0
 12 34  2  0  0  0  0
 13 14  1  0  0  0  0
 13 15  1  0  0  0  0
 13 18  1  0  0  0  0
 13 41  1  0  0  0  0
 14 16  1  0  0  0  0
 14 42  1  0  0  0  0
 14 43  1  0  0  0  0
 15 17  1  0  0  0  0
 15 44  1  0  0  0  0
 15 45  1  0  0  0  0
 16 46  1  0  0  0  0
 16 47  1  0  0  0  0
 17 19  1  0  0  0  0
 17 48  1  0  0  0  0
 19 21  2  0  0  0  0
 19 51  1  0  0  0  0
 20 22  1  0  0  0  0
 21 23  1  0  0  0  0
 21 52  1  0  0  0  0
 22 53  1  0  0  0  0
 22 54  1  0  0  0  0
 24 26  1  0  0  0  0
 25 27  2  0  0  0  0
 25 55  1  0  0  0  0
 26 28  2  0  0  0  0
 27 28  1  0  0  0  0
 27 56  1  0  0  0  0
 28 57  1  0  0  0  0
 29 30  1  0  0  0  0
 29 58  1  0  0  0  0
 29 59  1  0  0  0  0
 30 32  2  0  0  0  0
 30 33  1  0  0  0  0
 31 34  1  0  0  0  0
 32 35  1  0  0  0  0
 32 61  1  0  0  0  0
 33 36  2  0  0  0  0
 33 62  1  0  0  0  0
 34 37  1  0  0  0  0
 35 38  2  0  0  0  0
 35 64  1  0  0  0  0
 36 38  1  0  0  0  0
 36 65  1  0  0  0  0
 37 39  2  0  0  0  0
 37 63  1  0  0  0  0
 38 66  1  0  0  0  0
 39 40  1  0  0  0  0
 40 67  1  0  0  0  0
 40 68  1  0  0  0  0
 40 69  1  0  0  0  0
M  END
> <PUBCHEM_COMPOUND_CID>
142067002

> <PUBCHEM_COMPOUND_CANONICALIZED>
1

> <PUBCHEM_CACTVS_COMPLEXITY>
1070

> <PUBCHEM_CACTVS_HBOND_ACCEPTOR>
8

> <PUBCHEM_CACTVS_HBOND_DONOR>
3

> <PUBCHEM_CACTVS_ROTATABLE_BOND>
12

> <PUBCHEM_CACTVS_SUBSKEYS>
AAADceB7uAAAAAAAAAAAAAAAAAAAAWLAAAAwQAAAAAAAAAABwAAAHgAUAAAADSzhngYyjJPQBACpA6X2WgCCAAAmIgAomKG+bNoIZjqAtbuWMYhm1hmI6ce/wCAOAAAAAAAAAAAAAAAAAAAAAAAAAAAAAA==

> <PUBCHEM_IUPAC_OPENEYE_NAME>
benzyl (E,4S)-4-[[2-[3-[(5-methylisoxazole-3-carbonyl)amino]-2-oxo-1-pyridyl]acetyl]amino]-5-(2-oxopyrrolidin-3-yl)pent-2-enoate

> <PUBCHEM_IUPAC_CAS_NAME>
(E,4S)-4-[[2-[3-[[(5-methyl-3-isoxazolyl)-oxomethyl]amino]-2-oxo-1-pyridinyl]-1-oxoethyl]amino]-5-(2-oxo-3-pyrrolidinyl)-2-pentenoic acid (phenylmethyl) ester

> <PUBCHEM_IUPAC_NAME_MARKUP>
benzyl (<I>E</I>,4<I>S</I>)-4-[[2-[3-[(5-methyl-1,2-oxazole-3-carbonyl)amino]-2-oxopyridin-1-yl]acetyl]amino]-5-(2-oxopyrrolidin-3-yl)pent-2-enoate

> <PUBCHEM_IUPAC_NAME>
benzyl (E,4S)-4-[[2-[3-[(5-methyl-1,2-oxazole-3-carbonyl)amino]-2-oxopyridin-1-yl]acetyl]amino]-5-(2-oxopyrrolidin-3-yl)pent-2-enoate

> <PUBCHEM_IUPAC_SYSTEMATIC_NAME>
(phenylmethyl) (E,4S)-4-[2-[3-[(5-methyl-1,2-oxazol-3-yl)carbonylamino]-2-oxidanylidene-pyridin-1-yl]ethanoylamino]-5-(2-oxidanylidenepyrrolidin-3-yl)pent-2-enoate

> <PUBCHEM_IUPAC_TRADITIONAL_NAME>
(E,4S)-4-[[2-[2-keto-3-[(5-methylisoxazole-3-carbonyl)amino]-1-pyridyl]acetyl]amino]-5-(2-ketopyrrolidin-3-yl)pent-2-enoic acid benzyl ester

> <PUBCHEM_IUPAC_INCHI>
InChI=1S/C28H29N5O7/c1-18-14-23(32-40-18)27(37)31-22-8-5-13-33(28(22)38)16-24(34)30-21(15-20-11-12-29-26(20)36)9-10-25(35)39-17-19-6-3-2-4-7-19/h2-10,13-14,20-21H,11-12,15-17H2,1H3,(H,29,36)(H,30,34)(H,31,37)/b10-9+/t20?,21-/m1/s1

> <PUBCHEM_IUPAC_INCHIKEY>
PWHIIUXVOBFFHT-NMYXLMRTSA-N

> <PUBCHEM_XLOGP3_AA>
1.4

> <PUBCHEM_EXACT_MASS>
547.206698

> <PUBCHEM_MOLECULAR_FORMULA>
C28H29N5O7

> <PUBCHEM_MOLECULAR_WEIGHT>
547.6

> <PUBCHEM_OPENEYE_CAN_SMILES>
CC1=CC(=NO1)C(=O)NC2=CC=CN(C2=O)CC(=O)NC(CC3CCNC3=O)C=CC(=O)OCC4=CC=CC=C4

> <PUBCHEM_OPENEYE_ISO_SMILES>
CC1=CC(=NO1)C(=O)NC2=CC=CN(C2=O)CC(=O)N[C@@H](CC3CCNC3=O)/C=C/C(=O)OCC4=CC=CC=C4

> <PUBCHEM_CACTVS_TPSA>
160

> <PUBCHEM_MONOISOTOPIC_WEIGHT>
547.206698

> <PUBCHEM_TOTAL_CHARGE>
0

> <PUBCHEM_HEAVY_ATOM_COUNT>
40

> <PUBCHEM_ATOM_DEF_STEREO_COUNT>
1

> <PUBCHEM_ATOM_UDEF_STEREO_COUNT>
1

> <PUBCHEM_BOND_DEF_STEREO_COUNT>
1

> <PUBCHEM_BOND_UDEF_STEREO_COUNT>
0

> <PUBCHEM_ISOTOPIC_ATOM_COUNT>
0

> <PUBCHEM_COMPONENT_COUNT>
1

> <PUBCHEM_CACTVS_TAUTO_COUNT>
-1

> <PUBCHEM_COORDINATE_TYPE>
1
5
255

> <PUBCHEM_BONDANNOTATIONS>
10  24  8
10  25  8
12  34  8
13  15  3
24  26  8
25  27  8
26  28  8
27  28  8
30  32  8
30  33  8
32  35  8
33  36  8
34  37  8
35  38  8
36  38  8
37  39  8
7  12  8
7  39  8
17  9  5

$$$$
142067009
  -OEChem-02212016592D

 75 78  0     1  0  0  0  0  0999 V2000
   13.6052    8.4830    0.0000 F   0  0  0  0  0  0  0  0  0  0  0  0
    7.4794    1.5000    0.0000 O   0  0  0  0  0  0  0  0  0  0  0  0
    4.4372    0.4612    0.0000 O   0  0  0  0  0  0  0  0  0  0  0  0
    6.3859    5.1636    0.0000 O   0  0  0  0  0  0  0  0  0  0  0  0
    6.1585    0.0000    0.0000 O   0  0  0  0  0  0  0  0  0  0  0  0
    2.9218    6.1636    0.0000 O   0  0  0  0  0  0  0  0  0  0  0  0
    3.7879    9.6636    0.0000 O   0  0  0  0  0  0  0  0  0  0  0  0
    0.4731   10.0001    0.0000 O   0  0  0  0  0  0  0  0  0  0  0  0
    9.2007    1.9612    0.0000 N   0  0  0  0  0  0  0  0  0  0  0  0
    5.5199    3.6636    0.0000 N   0  0  0  0  0  0  0  0  0  0  0  0
    4.6539    6.1636    0.0000 N   0  0  0  0  0  0  0  0  0  0  0  0
    2.9218    8.1636    0.0000 N   0  0  0  0  0  0  0  0  0  0  0  0
    1.1423    9.2569    0.0000 N   0  0  0  0  0  0  0  0  0  0  0  0
    8.1180    3.1636    0.0000 C   0  0  3  0  0  0  0  0  0  0  0  0
    7.2520    3.6636    0.0000 C   0  0  0  0  0  0  0  0  0  0  0  0
    9.0315    3.5704    0.0000 C   0  0  0  0  0  0  0  0  0  0  0  0
    6.3859    3.1636    0.0000 C   0  0  3  0  0  0  0  0  0  0  0  0
    9.7007    2.8272    0.0000 C   0  0  0  0  0  0  0  0  0  0  0  0
    8.2225    2.1691    0.0000 C   0  0  0  0  0  0  0  0  0  0  0  0
    6.3859    2.1636    0.0000 C   0  0  0  0  0  0  0  0  0  0  0  0
    5.5199    1.6636    0.0000 C   0  0  0  0  0  0  0  0  0  0  0  0
    4.6064    2.0704    0.0000 C   0  0  0  0  0  0  0  0  0  0  0  0
    5.5199    4.6636    0.0000 C   0  0  0  0  0  0  0  0  0  0  0  0
    3.9372    1.3272    0.0000 C   0  0  0  0  0  0  0  0  0  0  0  0
    5.4154    0.6691    0.0000 C   0  0  0  0  0  0  0  0  0  0  0  0
    4.6539    5.1636    0.0000 C   0  0  0  0  0  0  0  0  0  0  0  0
    3.7879    6.6636    0.0000 C   0  0  0  0  0  0  0  0  0  0  0  0
    5.5199    6.6636    0.0000 C   0  0  0  0  0  0  0  0  0  0  0  0
    3.7879    7.6636    0.0000 C   0  0  0  0  0  0  0  0  0  0  0  0
    5.5199    7.6636    0.0000 C   0  0  0  0  0  0  0  0  0  0  0  0
    4.6539    8.1636    0.0000 C   0  0  0  0  0  0  0  0  0  0  0  0
    2.9218    9.1636    0.0000 C   0  0  0  0  0  0  0  0  0  0  0  0
    2.0558    9.6636    0.0000 C   0  0  0  0  0  0  0  0  0  0  0  0
    1.9513   10.6582    0.0000 C   0  0  0  0  0  0  0  0  0  0  0  0
    0.9731   10.8661    0.0000 C   0  0  0  0  0  0  0  0  0  0  0  0
    0.5664   11.7796    0.0000 C   0  0  0  0  0  0  0  0  0  0  0  0
   13.6052    5.4830    0.0000 C   0  0  0  0  0  0  0  0  0  0  0  0
   12.7392    5.9830    0.0000 C   0  0  0  0  0  0  0  0  0  0  0  0
   14.4712    5.9830    0.0000 C   0  0  0  0  0  0  0  0  0  0  0  0
   13.6052    4.4830    0.0000 C   0  0  0  0  0  0  0  0  0  0  0  0
   12.7392    6.9830    0.0000 C   0  0  0  0  0  0  0  0  0  0  0  0
   14.4712    6.9830    0.0000 C   0  0  0  0  0  0  0  0  0  0  0  0
   13.6052    7.4830    0.0000 C   0  0  0  0  0  0  0  0  0  0  0  0
    7.5980    2.8260    0.0000 H   0  0  0  0  0  0  0  0  0  0  0  0
    7.6505    4.1386    0.0000 H   0  0  0  0  0  0  0  0  0  0  0  0
    6.8534    4.1386    0.0000 H   0  0  0  0  0  0  0  0  0  0  0  0
    9.5331    3.9348    0.0000 H   0  0  0  0  0  0  0  0  0  0  0  0
    8.7215    4.1073    0.0000 H   0  0  0  0  0  0  0  0  0  0  0  0
    5.8490    2.8536    0.0000 H   0  0  0  0  0  0  0  0  0  0  0  0
   10.2023    2.4628    0.0000 H   0  0  0  0  0  0  0  0  0  0  0  0
   10.1155    3.2880    0.0000 H   0  0  0  0  0  0  0  0  0  0  0  0
    9.4528    1.3948    0.0000 H   0  0  0  0  0  0  0  0  0  0  0  0
    6.9229    1.8536    0.0000 H   0  0  0  0  0  0  0  0  0  0  0  0
    4.9830    3.3536    0.0000 H   0  0  0  0  0  0  0  0  0  0  0  0
    4.9164    2.6073    0.0000 H   0  0  0  0  0  0  0  0  0  0  0  0
    4.1048    2.4348    0.0000 H   0  0  0  0  0  0  0  0  0  0  0  0
    3.5224    1.7880    0.0000 H   0  0  0  0  0  0  0  0  0  0  0  0
    3.4356    0.9628    0.0000 H   0  0  0  0  0  0  0  0  0  0  0  0
    4.0433    5.2713    0.0000 H   0  0  0  0  0  0  0  0  0  0  0  0
    4.4418    4.5810    0.0000 H   0  0  0  0  0  0  0  0  0  0  0  0
    6.0568    6.3536    0.0000 H   0  0  0  0  0  0  0  0  0  0  0  0
    6.0568    7.9736    0.0000 H   0  0  0  0  0  0  0  0  0  0  0  0
    4.6539    8.7836    0.0000 H   0  0  0  0  0  0  0  0  0  0  0  0
    2.3849    7.8536    0.0000 H   0  0  0  0  0  0  0  0  0  0  0  0
    2.4120   11.0730    0.0000 H   0  0  0  0  0  0  0  0  0  0  0  0
    1.1328   12.0318    0.0000 H   0  0  0  0  0  0  0  0  0  0  0  0
    0.3142   12.3460    0.0000 H   0  0  0  0  0  0  0  0  0  0  0  0
    0.0000   11.5275    0.0000 H   0  0  0  0  0  0  0  0  0  0  0  0
   12.2023    5.6730    0.0000 H   0  0  0  0  0  0  0  0  0  0  0  0
   15.0082    5.6730    0.0000 H   0  0  0  0  0  0  0  0  0  0  0  0
   12.9852    4.4830    0.0000 H   0  0  0  0  0  0  0  0  0  0  0  0
   13.6052    3.8630    0.0000 H   0  0  0  0  0  0  0  0  0  0  0  0
   14.2252    4.4830    0.0000 H   0  0  0  0  0  0  0  0  0  0  0  0
   12.2023    7.2930    0.0000 H   0  0  0  0  0  0  0  0  0  0  0  0
   15.0082    7.2930    0.0000 H   0  0  0  0  0  0  0  0  0  0  0  0
  1 43  1  0  0  0  0
  2 19  2  0  0  0  0
  3 24  1  0  0  0  0
  3 25  1  0  0  0  0
  4 23  2  0  0  0  0
  5 25  2  0  0  0  0
  6 27  2  0  0  0  0
  7 32  2  0  0  0  0
  8 13  1  0  0  0  0
  8 35  1  0  0  0  0
  9 18  1  0  0  0  0
  9 19  1  0  0  0  0
  9 52  1  0  0  0  0
 10 17  1  0  0  0  0
 10 23  1  0  0  0  0
 10 54  1  0  0  0  0
 11 26  1  0  0  0  0
 11 27  1  0  0  0  0
 11 28  1  0  0  0  0
 12 29  1  0  0  0  0
 12 32  1  0  0  0  0
 12 64  1  0  0  0  0
 13 33  2  0  0  0  0
 14 15  1  0  0  0  0
 14 16  1  0  0  0  0
 14 19  1  0  0  0  0
 14 44  1  0  0  0  0
 15 17  1  0  0  0  0
 15 45  1  0  0  0  0
 15 46  1  0  0  0  0
 16 18  1  0  0  0  0
 16 47  1  0  0  0  0
 16 48  1  0  0  0  0
 17 20  1  0  0  0  0
 17 49  1  0  0  0  0
 18 50  1  0  0  0  0
 18 51  1  0  0  0  0
 20 21  2  0  0  0  0
 20 53  1  0  0  0  0
 21 22  1  0  0  0  0
 21 25  1  0  0  0  0
 22 24  1  0  0  0  0
 22 55  1  0  0  0  0
 22 56  1  0  0  0  0
 23 26  1  0  0  0  0
 24 57  1  0  0  0  0
 24 58  1  0  0  0  0
 26 59  1  0  0  0  0
 26 60  1  0  0  0  0
 27 29  1  0  0  0  0
 28 30  2  0  0  0  0
 28 61  1  0  0  0  0
 29 31  2  0  0  0  0
 30 31  1  0  0  0  0
 30 62  1  0  0  0  0
 31 63  1  0  0  0  0
 32 33  1  0  0  0  0
 33 34  1  0  0  0  0
 34 35  2  0  0  0  0
 34 65  1  0  0  0  0
 35 36  1  0  0  0  0
 36 66  1  0  0  0  0
 36 67  1  0  0  0  0
 36 68  1  0  0  0  0
 37 38  2  0  0  0  0
 37 39  1  0  0  0  0
 37 40  1  0  0  0  0
 38 41  1  0  0  0  0
 38 69  1  0  0  0  0
 39 42  2  0  0  0  0
 39 70  1  0  0  0  0
 40 71  1  0  0  0  0
 40 72  1  0  0  0  0
 40 73  1  0  0  0  0
 41 43  2  0  0  0  0
 41 74  1  0  0  0  0
 42 43  1  0  0  0  0
 42 75  1  0  0  0  0
M  END
> <PUBCHEM_COMPOUND_CID>
142067009

> <PUBCHEM_COMPOUND_CANONICALIZED>
1

> <PUBCHEM_CACTVS_COMPLEXITY>
1070

> <PUBCHEM_CACTVS_HBOND_ACCEPTOR>
9

> <PUBCHEM_CACTVS_HBOND_DONOR>
3

> <PUBCHEM_CACTVS_ROTATABLE_BOND>
8

> <PUBCHEM_CACTVS_SUBSKEYS>
AAADcfB7uQAAAAAAAAAAAAAAAAAAAWLEgAAwQAAAAAAAAAABwAAAHwAUAAAADSzhng4yjJPQBACpA6X2WgCCAAAmIgAomKG+bNoIZjqAtbOWMYhm1hiI6cc/gAAOAAAAAAAAAAAAAAAAAAAAAAAAAAAAAA==

> <PUBCHEM_IUPAC_OPENEYE_NAME>
1-fluoro-4-methyl-benzene;5-methyl-N-[2-oxo-1-[2-oxo-2-[[(2E)-1-[(2-oxopyrrolidin-3-yl)methyl]-2-(2-oxotetrahydrofuran-3-ylidene)ethyl]amino]ethyl]-3-pyridyl]isoxazole-3-carboxamide

> <PUBCHEM_IUPAC_CAS_NAME>
1-fluoro-4-methylbenzene;5-methyl-N-[2-oxo-1-[2-oxo-2-[[(1E)-1-(2-oxo-3-oxolanylidene)-3-(2-oxo-3-pyrrolidinyl)propan-2-yl]amino]ethyl]-3-pyridinyl]-3-isoxazolecarboxamide

> <PUBCHEM_IUPAC_NAME_MARKUP>
1-fluoro-4-methylbenzene;5-methyl-<I>N</I>-[2-oxo-1-[2-oxo-2-[[(1<I>E</I>)-1-(2-oxooxolan-3-ylidene)-3-(2-oxopyrrolidin-3-yl)propan-2-yl]amino]ethyl]pyridin-3-yl]-1,2-oxazole-3-carboxamide

> <PUBCHEM_IUPAC_NAME>
1-fluoro-4-methylbenzene;5-methyl-N-[2-oxo-1-[2-oxo-2-[[(1E)-1-(2-oxooxolan-3-ylidene)-3-(2-oxopyrrolidin-3-yl)propan-2-yl]amino]ethyl]pyridin-3-yl]-1,2-oxazole-3-carboxamide

> <PUBCHEM_IUPAC_SYSTEMATIC_NAME>
1-fluoranyl-4-methyl-benzene;5-methyl-N-[2-oxidanylidene-1-[2-oxidanylidene-2-[[(1E)-1-(2-oxidanylideneoxolan-3-ylidene)-3-(2-oxidanylidenepyrrolidin-3-yl)propan-2-yl]amino]ethyl]pyridin-3-yl]-1,2-oxazole-3-carboxamide

> <PUBCHEM_IUPAC_TRADITIONAL_NAME>
1-fluoro-4-methyl-benzene;N-[2-keto-1-[2-keto-2-[[(2E)-1-[(2-ketopyrrolidin-3-yl)methyl]-2-(2-ketotetrahydrofuran-3-ylidene)ethyl]amino]ethyl]-3-pyridyl]-5-methyl-isoxazole-3-carboxamide

> <PUBCHEM_IUPAC_INCHI>
InChI=1S/C23H25N5O7.C7H7F/c1-13-9-18(27-35-13)21(31)26-17-3-2-7-28(22(17)32)12-19(29)25-16(10-14-4-6-24-20(14)30)11-15-5-8-34-23(15)33;1-6-2-4-7(8)5-3-6/h2-3,7,9,11,14,16H,4-6,8,10,12H2,1H3,(H,24,30)(H,25,29)(H,26,31);2-5H,1H3/b15-11+;

> <PUBCHEM_IUPAC_INCHIKEY>
JIMBBGGDZZWCGN-KRWCAOSLSA-N

> <PUBCHEM_EXACT_MASS>
593.228577

> <PUBCHEM_MOLECULAR_FORMULA>
C30H32FN5O7

> <PUBCHEM_MOLECULAR_WEIGHT>
593.6

> <PUBCHEM_OPENEYE_CAN_SMILES>
CC1=CC=C(C=C1)F.CC1=CC(=NO1)C(=O)NC2=CC=CN(C2=O)CC(=O)NC(CC3CCNC3=O)C=C4CCOC4=O

> <PUBCHEM_OPENEYE_ISO_SMILES>
CC1=CC=C(C=C1)F.CC1=CC(=NO1)C(=O)NC2=CC=CN(C2=O)CC(=O)NC(CC3CCNC3=O)/C=C/4\CCOC4=O

> <PUBCHEM_CACTVS_TPSA>
160

> <PUBCHEM_MONOISOTOPIC_WEIGHT>
593.228577

> <PUBCHEM_TOTAL_CHARGE>
0

> <PUBCHEM_HEAVY_ATOM_COUNT>
43

> <PUBCHEM_ATOM_DEF_STEREO_COUNT>
0

> <PUBCHEM_ATOM_UDEF_STEREO_COUNT>
2

> <PUBCHEM_BOND_DEF_STEREO_COUNT>
1

> <PUBCHEM_BOND_UDEF_STEREO_COUNT>
0

> <PUBCHEM_ISOTOPIC_ATOM_COUNT>
0

> <PUBCHEM_COMPONENT_COUNT>
2

> <PUBCHEM_CACTVS_TAUTO_COUNT>
-1

> <PUBCHEM_COORDINATE_TYPE>
1
5
255

> <PUBCHEM_BONDANNOTATIONS>
11  27  8
11  28  8
13  33  8
14  15  3
17  15  3
27  29  8
28  30  8
29  31  8
30  31  8
33  34  8
34  35  8
37  38  8
37  39  8
38  41  8
39  42  8
41  43  8
42  43  8
8  13  8
8  35  8

$$$$
142696594
  -OEChem-02212016592D

 84 86  0     1  0  0  0  0  0999 V2000
    6.3092   -5.1012    0.0000 F   0  0  0  0  0  0  0  0  0  0  0  0
    5.4432    0.3988    0.0000 O   0  0  0  0  0  0  0  0  0  0  0  0
    8.0413   -2.1012    0.0000 O   0  0  0  0  0  0  0  0  0  0  0  0
    6.3092    3.8988    0.0000 O   0  0  0  0  0  0  0  0  0  0  0  0
    3.4945    5.1012    0.0000 O   0  0  0  0  0  0  0  0  0  0  0  0
    9.7734   -4.1012    0.0000 O   0  0  0  0  0  0  0  0  0  0  0  0
   13.2375   -1.1012    0.0000 O   0  0  0  0  0  0  0  0  0  0  0  0
   12.3714    0.3988    0.0000 O   0  0  0  0  0  0  0  0  0  0  0  0
    7.1753    0.3988    0.0000 N   0  0  0  0  0  0  0  0  0  0  0  0
    5.4432    2.3988    0.0000 N   0  0  0  0  0  0  0  0  0  0  0  0
    8.9073   -0.6012    0.0000 N   0  0  0  0  0  0  0  0  0  0  0  0
    4.4727    4.8933    0.0000 N   0  0  0  0  0  0  0  0  0  0  0  0
   11.5054   -4.1012    0.0000 N   0  0  0  0  0  0  0  0  0  0  0  0
    6.3092    1.8988    0.0000 C   0  0  1  0  0  0  0  0  0  0  0  0
    7.1753    2.3988    0.0000 C   0  0  0  0  0  0  0  0  0  0  0  0
    7.1753   -0.6012    0.0000 C   0  0  1  0  0  0  0  0  0  0  0  0
    6.3092    0.8988    0.0000 C   0  0  0  0  0  0  0  0  0  0  0  0
    6.3092   -1.1012    0.0000 C   0  0  0  0  0  0  0  0  0  0  0  0
    9.7734   -1.1012    0.0000 C   0  0  1  0  0  0  0  0  0  0  0  0
    8.0413   -1.1012    0.0000 C   0  0  0  0  0  0  0  0  0  0  0  0
    7.1753    3.3988    0.0000 C   0  0  0  0  0  0  0  0  0  0  0  0
    8.0413    1.8988    0.0000 C   0  0  0  0  0  0  0  0  0  0  0  0
    9.7734   -2.1012    0.0000 C   0  0  0  0  0  0  0  0  0  0  0  0
    6.3092   -2.1012    0.0000 C   0  0  0  0  0  0  0  0  0  0  0  0
   10.6394   -2.6012    0.0000 C   0  0  0  0  0  0  0  0  0  0  0  0
   10.6394   -0.6012    0.0000 C   0  0  0  0  0  0  0  0  0  0  0  0
    5.4432    3.3988    0.0000 C   0  0  0  0  0  0  0  0  0  0  0  0
    7.1753   -2.6012    0.0000 C   0  0  0  0  0  0  0  0  0  0  0  0
    5.4432   -2.6012    0.0000 C   0  0  0  0  0  0  0  0  0  0  0  0
    4.5772    3.8988    0.0000 C   0  0  0  0  0  0  0  0  0  0  0  0
   10.6394   -3.6012    0.0000 C   0  0  0  0  0  0  0  0  0  0  0  0
    7.1753   -3.6012    0.0000 C   0  0  0  0  0  0  0  0  0  0  0  0
    5.4432   -3.6012    0.0000 C   0  0  0  0  0  0  0  0  0  0  0  0
   11.5054   -1.1012    0.0000 C   0  0  0  0  0  0  0  0  0  0  0  0
    6.3092   -4.1012    0.0000 C   0  0  0  0  0  0  0  0  0  0  0  0
    3.6636    3.4920    0.0000 C   0  0  0  0  0  0  0  0  0  0  0  0
   12.3714   -0.6012    0.0000 C   0  0  0  0  0  0  0  0  0  0  0  0
    2.9945    4.2352    0.0000 C   0  0  0  0  0  0  0  0  0  0  0  0
    2.0000    4.1307    0.0000 C   0  0  0  0  0  0  0  0  0  0  0  0
   14.1035   -0.6012    0.0000 C   0  0  0  0  0  0  0  0  0  0  0  0
   14.9695   -1.1012    0.0000 C   0  0  0  0  0  0  0  0  0  0  0  0
   15.8355   -0.6012    0.0000 C   0  0  0  0  0  0  0  0  0  0  0  0
   14.9695   -2.1012    0.0000 C   0  0  0  0  0  0  0  0  0  0  0  0
   16.7016   -1.1012    0.0000 C   0  0  0  0  0  0  0  0  0  0  0  0
   15.8355   -2.6012    0.0000 C   0  0  0  0  0  0  0  0  0  0  0  0
   16.7016   -2.1012    0.0000 C   0  0  0  0  0  0  0  0  0  0  0  0
    6.3092    2.5188    0.0000 H   0  0  0  0  0  0  0  0  0  0  0  0
    7.1753    1.7788    0.0000 H   0  0  0  0  0  0  0  0  0  0  0  0
    7.7122   -0.2912    0.0000 H   0  0  0  0  0  0  0  0  0  0  0  0
    6.0972   -0.5186    0.0000 H   0  0  0  0  0  0  0  0  0  0  0  0
    5.6987   -1.2089    0.0000 H   0  0  0  0  0  0  0  0  0  0  0  0
    7.7122    0.7088    0.0000 H   0  0  0  0  0  0  0  0  0  0  0  0
    9.7734   -0.4812    0.0000 H   0  0  0  0  0  0  0  0  0  0  0  0
    7.7953    3.3988    0.0000 H   0  0  0  0  0  0  0  0  0  0  0  0
    7.1753    4.0188    0.0000 H   0  0  0  0  0  0  0  0  0  0  0  0
    6.5553    3.3988    0.0000 H   0  0  0  0  0  0  0  0  0  0  0  0
    7.7313    1.3618    0.0000 H   0  0  0  0  0  0  0  0  0  0  0  0
    8.5782    1.5888    0.0000 H   0  0  0  0  0  0  0  0  0  0  0  0
    8.3513    2.4357    0.0000 H   0  0  0  0  0  0  0  0  0  0  0  0
    4.9063    2.0888    0.0000 H   0  0  0  0  0  0  0  0  0  0  0  0
    8.9073    0.0188    0.0000 H   0  0  0  0  0  0  0  0  0  0  0  0
    9.1628   -1.9936    0.0000 H   0  0  0  0  0  0  0  0  0  0  0  0
    9.5613   -2.6838    0.0000 H   0  0  0  0  0  0  0  0  0  0  0  0
   11.2500   -2.7089    0.0000 H   0  0  0  0  0  0  0  0  0  0  0  0
   10.8514   -2.0186    0.0000 H   0  0  0  0  0  0  0  0  0  0  0  0
   10.6394    0.0188    0.0000 H   0  0  0  0  0  0  0  0  0  0  0  0
    7.7122   -2.2912    0.0000 H   0  0  0  0  0  0  0  0  0  0  0  0
    4.9063   -2.2912    0.0000 H   0  0  0  0  0  0  0  0  0  0  0  0
    7.7122   -3.9112    0.0000 H   0  0  0  0  0  0  0  0  0  0  0  0
    4.9063   -3.9112    0.0000 H   0  0  0  0  0  0  0  0  0  0  0  0
   11.5054   -1.7212    0.0000 H   0  0  0  0  0  0  0  0  0  0  0  0
    3.5348    2.8856    0.0000 H   0  0  0  0  0  0  0  0  0  0  0  0
   11.5054   -4.7212    0.0000 H   0  0  0  0  0  0  0  0  0  0  0  0
   12.0423   -3.7912    0.0000 H   0  0  0  0  0  0  0  0  0  0  0  0
    1.9352    4.7473    0.0000 H   0  0  0  0  0  0  0  0  0  0  0  0
    1.3834    4.0659    0.0000 H   0  0  0  0  0  0  0  0  0  0  0  0
    2.0648    3.5141    0.0000 H   0  0  0  0  0  0  0  0  0  0  0  0
   14.5020   -0.1263    0.0000 H   0  0  0  0  0  0  0  0  0  0  0  0
   13.7049   -0.1263    0.0000 H   0  0  0  0  0  0  0  0  0  0  0  0
   15.8355    0.0188    0.0000 H   0  0  0  0  0  0  0  0  0  0  0  0
   14.4326   -2.4112    0.0000 H   0  0  0  0  0  0  0  0  0  0  0  0
   17.2385   -0.7912    0.0000 H   0  0  0  0  0  0  0  0  0  0  0  0
   15.8355   -3.2212    0.0000 H   0  0  0  0  0  0  0  0  0  0  0  0
   17.2385   -2.4112    0.0000 H   0  0  0  0  0  0  0  0  0  0  0  0
  1 35  1  0  0  0  0
  2 17  2  0  0  0  0
  3 20  2  0  0  0  0
  4 27  2  0  0  0  0
  5 12  1  0  0  0  0
  5 38  1  0  0  0  0
  6 31  2  0  0  0  0
  7 37  1  0  0  0  0
  7 40  1  0  0  0  0
  8 37  2  0  0  0  0
 16  9  1  6  0  0  0
  9 17  1  0  0  0  0
  9 52  1  0  0  0  0
 14 10  1  1  0  0  0
 10 27  1  0  0  0  0
 10 60  1  0  0  0  0
 19 11  1  6  0  0  0
 11 20  1  0  0  0  0
 11 61  1  0  0  0  0
 12 30  2  0  0  0  0
 13 31  1  0  0  0  0
 13 73  1  0  0  0  0
 13 74  1  0  0  0  0
 14 15  1  0  0  0  0
 14 17  1  0  0  0  0
 14 47  1  0  0  0  0
 15 21  1  0  0  0  0
 15 22  1  0  0  0  0
 15 48  1  0  0  0  0
 16 18  1  0  0  0  0
 16 20  1  0  0  0  0
 16 49  1  0  0  0  0
 18 24  1  0  0  0  0
 18 50  1  0  0  0  0
 18 51  1  0  0  0  0
 19 23  1  0  0  0  0
 19 26  1  0  0  0  0
 19 53  1  0  0  0  0
 21 54  1  0  0  0  0
 21 55  1  0  0  0  0
 21 56  1  0  0  0  0
 22 57  1  0  0  0  0
 22 58  1  0  0  0  0
 22 59  1  0  0  0  0
 23 25  1  0  0  0  0
 23 62  1  0  0  0  0
 23 63  1  0  0  0  0
 24 28  2  0  0  0  0
 24 29  1  0  0  0  0
 25 31  1  0  0  0  0
 25 64  1  0  0  0  0
 25 65  1  0  0  0  0
 26 34  2  0  0  0  0
 26 66  1  0  0  0  0
 27 30  1  0  0  0  0
 28 32  1  0  0  0  0
 28 67  1  0  0  0  0
 29 33  2  0  0  0  0
 29 68  1  0  0  0  0
 30 36  1  0  0  0  0
 32 35  2  0  0  0  0
 32 69  1  0  0  0  0
 33 35  1  0  0  0  0
 33 70  1  0  0  0  0
 34 37  1  0  0  0  0
 34 71  1  0  0  0  0
 36 38  2  0  0  0  0
 36 72  1  0  0  0  0
 38 39  1  0  0  0  0
 39 75  1  0  0  0  0
 39 76  1  0  0  0  0
 39 77  1  0  0  0  0
 40 41  1  0  0  0  0
 40 78  1  0  0  0  0
 40 79  1  0  0  0  0
 41 42  2  0  0  0  0
 41 43  1  0  0  0  0
 42 44  1  0  0  0  0
 42 80  1  0  0  0  0
 43 45  2  0  0  0  0
 43 81  1  0  0  0  0
 44 46  2  0  0  0  0
 44 82  1  0  0  0  0
 45 46  1  0  0  0  0
 45 83  1  0  0  0  0
 46 84  1  0  0  0  0
M  END
> <PUBCHEM_COMPOUND_CID>
142696594

> <PUBCHEM_COMPOUND_CANONICALIZED>
1

> <PUBCHEM_CACTVS_COMPLEXITY>
1060

> <PUBCHEM_CACTVS_HBOND_ACCEPTOR>
9

> <PUBCHEM_CACTVS_HBOND_DONOR>
4

> <PUBCHEM_CACTVS_ROTATABLE_BOND>
17

> <PUBCHEM_CACTVS_SUBSKEYS>
AAADcfB/uQAAAAAAAAAAAAAAAAAAAWAAAAAwYAAAAAAAAAAB0AAAHwAUAAAADSzhng4yjJLQBACpA6XyWgCCAAAmIgAomKG+bNoIZjqAtbuWMYhm1hmI6ce/yKCOAAAAAAAAAAAAAAAAAAAAAAAAAAAAAA==

> <PUBCHEM_IUPAC_OPENEYE_NAME>
benzyl (E,4S)-7-amino-4-[[(2S)-3-(4-fluorophenyl)-2-[[(2S)-3-methyl-2-[(5-methylisoxazole-3-carbonyl)amino]butanoyl]amino]propanoyl]amino]-7-oxo-hept-2-enoate

> <PUBCHEM_IUPAC_CAS_NAME>
(E,4S)-7-amino-4-[[(2S)-3-(4-fluorophenyl)-2-[[(2S)-3-methyl-2-[[(5-methyl-3-isoxazolyl)-oxomethyl]amino]-1-oxobutyl]amino]-1-oxopropyl]amino]-7-oxo-2-heptenoic acid (phenylmethyl) ester

> <PUBCHEM_IUPAC_NAME_MARKUP>
benzyl (<I>E</I>,4<I>S</I>)-7-amino-4-[[(2<I>S</I>)-3-(4-fluorophenyl)-2-[[(2<I>S</I>)-3-methyl-2-[(5-methyl-1,2-oxazole-3-carbonyl)amino]butanoyl]amino]propanoyl]amino]-7-oxohept-2-enoate

> <PUBCHEM_IUPAC_NAME>
benzyl (E,4S)-7-amino-4-[[(2S)-3-(4-fluorophenyl)-2-[[(2S)-3-methyl-2-[(5-methyl-1,2-oxazole-3-carbonyl)amino]butanoyl]amino]propanoyl]amino]-7-oxohept-2-enoate

> <PUBCHEM_IUPAC_SYSTEMATIC_NAME>
(phenylmethyl) (E,4S)-7-azanyl-4-[[(2S)-3-(4-fluorophenyl)-2-[[(2S)-3-methyl-2-[(5-methyl-1,2-oxazol-3-yl)carbonylamino]butanoyl]amino]propanoyl]amino]-7-oxidanylidene-hept-2-enoate

> <PUBCHEM_IUPAC_TRADITIONAL_NAME>
(E,4S)-7-amino-4-[[(2S)-3-(4-fluorophenyl)-2-[[(2S)-3-methyl-2-[(5-methylisoxazole-3-carbonyl)amino]butanoyl]amino]propanoyl]amino]-7-keto-hept-2-enoic acid benzyl ester

> <PUBCHEM_IUPAC_INCHI>
InChI=1S/C33H38FN5O7/c1-20(2)30(38-32(43)27-17-21(3)46-39-27)33(44)37-26(18-22-9-11-24(34)12-10-22)31(42)36-25(13-15-28(35)40)14-16-29(41)45-19-23-7-5-4-6-8-23/h4-12,14,16-17,20,25-26,30H,13,15,18-19H2,1-3H3,(H2,35,40)(H,36,42)(H,37,44)(H,38,43)/b16-14+/t25-,26-,30-/m0/s1

> <PUBCHEM_IUPAC_INCHIKEY>
UANXZIIUBBFVCE-LKCJYELMSA-N

> <PUBCHEM_XLOGP3_AA>
3.4

> <PUBCHEM_EXACT_MASS>
635.275527

> <PUBCHEM_MOLECULAR_FORMULA>
C33H38FN5O7

> <PUBCHEM_MOLECULAR_WEIGHT>
635.7

> <PUBCHEM_OPENEYE_CAN_SMILES>
CC1=CC(=NO1)C(=O)NC(C(C)C)C(=O)NC(CC2=CC=C(C=C2)F)C(=O)NC(CCC(=O)N)C=CC(=O)OCC3=CC=CC=C3

> <PUBCHEM_OPENEYE_ISO_SMILES>
CC1=CC(=NO1)C(=O)N[C@@H](C(C)C)C(=O)N[C@@H](CC2=CC=C(C=C2)F)C(=O)N[C@@H](CCC(=O)N)/C=C/C(=O)OCC3=CC=CC=C3

> <PUBCHEM_CACTVS_TPSA>
183

> <PUBCHEM_MONOISOTOPIC_WEIGHT>
635.275527

> <PUBCHEM_TOTAL_CHARGE>
0

> <PUBCHEM_HEAVY_ATOM_COUNT>
46

> <PUBCHEM_ATOM_DEF_STEREO_COUNT>
3

> <PUBCHEM_ATOM_UDEF_STEREO_COUNT>
0

> <PUBCHEM_BOND_DEF_STEREO_COUNT>
1

> <PUBCHEM_BOND_UDEF_STEREO_COUNT>
0

> <PUBCHEM_ISOTOPIC_ATOM_COUNT>
0

> <PUBCHEM_COMPONENT_COUNT>
1

> <PUBCHEM_CACTVS_TAUTO_COUNT>
-1

> <PUBCHEM_COORDINATE_TYPE>
1
5
255

> <PUBCHEM_BONDANNOTATIONS>
14  10  5
19  11  6
12  30  8
24  28  8
24  29  8
28  32  8
29  33  8
30  36  8
32  35  8
33  35  8
36  38  8
41  42  8
41  43  8
42  44  8
43  45  8
44  46  8
45  46  8
5  12  8
5  38  8
16  9  6

$$$$
142696597
  -OEChem-02212016592D

 87 89  0     1  0  0  0  0  0999 V2000
    6.3092   -5.1012    0.0000 F   0  0  0  0  0  0  0  0  0  0  0  0
    5.4432    0.3988    0.0000 O   0  0  0  0  0  0  0  0  0  0  0  0
    8.0413   -2.1012    0.0000 O   0  0  0  0  0  0  0  0  0  0  0  0
    6.3092    3.8988    0.0000 O   0  0  0  0  0  0  0  0  0  0  0  0
    3.4945    5.1012    0.0000 O   0  0  0  0  0  0  0  0  0  0  0  0
    9.7734   -4.1012    0.0000 O   0  0  0  0  0  0  0  0  0  0  0  0
   13.2375   -1.1012    0.0000 O   0  0  0  0  0  0  0  0  0  0  0  0
   12.3714    0.3988    0.0000 O   0  0  0  0  0  0  0  0  0  0  0  0
    7.1753    0.3988    0.0000 N   0  0  0  0  0  0  0  0  0  0  0  0
    5.4432    2.3988    0.0000 N   0  0  0  0  0  0  0  0  0  0  0  0
    8.9073   -0.6012    0.0000 N   0  0  0  0  0  0  0  0  0  0  0  0
    4.4727    4.8933    0.0000 N   0  0  0  0  0  0  0  0  0  0  0  0
   11.5054   -4.1012    0.0000 N   0  0  0  0  0  0  0  0  0  0  0  0
    6.3092    1.8988    0.0000 C   0  0  1  0  0  0  0  0  0  0  0  0
    7.1753    2.3988    0.0000 C   0  0  0  0  0  0  0  0  0  0  0  0
    7.1753   -0.6012    0.0000 C   0  0  1  0  0  0  0  0  0  0  0  0
    6.3092    0.8988    0.0000 C   0  0  0  0  0  0  0  0  0  0  0  0
    6.3092   -1.1012    0.0000 C   0  0  0  0  0  0  0  0  0  0  0  0
    9.7734   -1.1012    0.0000 C   0  0  1  0  0  0  0  0  0  0  0  0
    8.0413   -1.1012    0.0000 C   0  0  0  0  0  0  0  0  0  0  0  0
    7.1753    3.3988    0.0000 C   0  0  0  0  0  0  0  0  0  0  0  0
    8.0413    1.8988    0.0000 C   0  0  0  0  0  0  0  0  0  0  0  0
    9.7734   -2.1012    0.0000 C   0  0  0  0  0  0  0  0  0  0  0  0
    6.3092   -2.1012    0.0000 C   0  0  0  0  0  0  0  0  0  0  0  0
   10.6394   -2.6012    0.0000 C   0  0  0  0  0  0  0  0  0  0  0  0
   10.6394   -0.6012    0.0000 C   0  0  0  0  0  0  0  0  0  0  0  0
    5.4432    3.3988    0.0000 C   0  0  0  0  0  0  0  0  0  0  0  0
    7.1753   -2.6012    0.0000 C   0  0  0  0  0  0  0  0  0  0  0  0
    5.4432   -2.6012    0.0000 C   0  0  0  0  0  0  0  0  0  0  0  0
    4.5772    3.8988    0.0000 C   0  0  0  0  0  0  0  0  0  0  0  0
   10.6394   -3.6012    0.0000 C   0  0  0  0  0  0  0  0  0  0  0  0
    7.1753   -3.6012    0.0000 C   0  0  0  0  0  0  0  0  0  0  0  0
    5.4432   -3.6012    0.0000 C   0  0  0  0  0  0  0  0  0  0  0  0
   11.5054   -1.1012    0.0000 C   0  0  0  0  0  0  0  0  0  0  0  0
    6.3092   -4.1012    0.0000 C   0  0  0  0  0  0  0  0  0  0  0  0
    3.6636    3.4920    0.0000 C   0  0  0  0  0  0  0  0  0  0  0  0
   12.3714   -0.6012    0.0000 C   0  0  0  0  0  0  0  0  0  0  0  0
    2.9945    4.2352    0.0000 C   0  0  0  0  0  0  0  0  0  0  0  0
   14.1035   -0.6012    0.0000 C   0  0  0  0  0  0  0  0  0  0  0  0
   14.9695   -1.1012    0.0000 C   0  0  0  0  0  0  0  0  0  0  0  0
    2.0000    4.1307    0.0000 C   0  0  0  0  0  0  0  0  0  0  0  0
   15.8355   -0.6012    0.0000 C   0  0  0  0  0  0  0  0  0  0  0  0
   15.8355    0.3988    0.0000 C   0  0  0  0  0  0  0  0  0  0  0  0
   16.7016   -1.1012    0.0000 C   0  0  0  0  0  0  0  0  0  0  0  0
   16.7016    0.8988    0.0000 C   0  0  0  0  0  0  0  0  0  0  0  0
   17.5676   -0.6012    0.0000 C   0  0  0  0  0  0  0  0  0  0  0  0
   17.5676    0.3988    0.0000 C   0  0  0  0  0  0  0  0  0  0  0  0
    6.3092    2.5188    0.0000 H   0  0  0  0  0  0  0  0  0  0  0  0
    7.1753    1.7788    0.0000 H   0  0  0  0  0  0  0  0  0  0  0  0
    7.7122   -0.2912    0.0000 H   0  0  0  0  0  0  0  0  0  0  0  0
    6.0972   -0.5186    0.0000 H   0  0  0  0  0  0  0  0  0  0  0  0
    5.6987   -1.2089    0.0000 H   0  0  0  0  0  0  0  0  0  0  0  0
    7.7122    0.7088    0.0000 H   0  0  0  0  0  0  0  0  0  0  0  0
    9.7734   -0.4812    0.0000 H   0  0  0  0  0  0  0  0  0  0  0  0
    7.7953    3.3988    0.0000 H   0  0  0  0  0  0  0  0  0  0  0  0
    7.1753    4.0188    0.0000 H   0  0  0  0  0  0  0  0  0  0  0  0
    6.5553    3.3988    0.0000 H   0  0  0  0  0  0  0  0  0  0  0  0
    7.7313    1.3618    0.0000 H   0  0  0  0  0  0  0  0  0  0  0  0
    8.5782    1.5888    0.0000 H   0  0  0  0  0  0  0  0  0  0  0  0
    8.3513    2.4357    0.0000 H   0  0  0  0  0  0  0  0  0  0  0  0
    4.9063    2.0888    0.0000 H   0  0  0  0  0  0  0  0  0  0  0  0
    8.9073    0.0188    0.0000 H   0  0  0  0  0  0  0  0  0  0  0  0
    9.1628   -1.9936    0.0000 H   0  0  0  0  0  0  0  0  0  0  0  0
    9.5613   -2.6838    0.0000 H   0  0  0  0  0  0  0  0  0  0  0  0
   11.2500   -2.7089    0.0000 H   0  0  0  0  0  0  0  0  0  0  0  0
   10.8514   -2.0186    0.0000 H   0  0  0  0  0  0  0  0  0  0  0  0
   10.6394    0.0188    0.0000 H   0  0  0  0  0  0  0  0  0  0  0  0
    7.7122   -2.2912    0.0000 H   0  0  0  0  0  0  0  0  0  0  0  0
    4.9063   -2.2912    0.0000 H   0  0  0  0  0  0  0  0  0  0  0  0
    7.7122   -3.9112    0.0000 H   0  0  0  0  0  0  0  0  0  0  0  0
    4.9063   -3.9112    0.0000 H   0  0  0  0  0  0  0  0  0  0  0  0
   11.5054   -1.7212    0.0000 H   0  0  0  0  0  0  0  0  0  0  0  0
    3.5348    2.8856    0.0000 H   0  0  0  0  0  0  0  0  0  0  0  0
   11.5054   -4.7212    0.0000 H   0  0  0  0  0  0  0  0  0  0  0  0
   12.0423   -3.7912    0.0000 H   0  0  0  0  0  0  0  0  0  0  0  0
   14.5020   -0.1263    0.0000 H   0  0  0  0  0  0  0  0  0  0  0  0
   13.7049   -0.1263    0.0000 H   0  0  0  0  0  0  0  0  0  0  0  0
   14.5710   -1.5762    0.0000 H   0  0  0  0  0  0  0  0  0  0  0  0
   15.3680   -1.5762    0.0000 H   0  0  0  0  0  0  0  0  0  0  0  0
    1.9352    4.7473    0.0000 H   0  0  0  0  0  0  0  0  0  0  0  0
    1.3834    4.0659    0.0000 H   0  0  0  0  0  0  0  0  0  0  0  0
    2.0648    3.5141    0.0000 H   0  0  0  0  0  0  0  0  0  0  0  0
   15.2986    0.7088    0.0000 H   0  0  0  0  0  0  0  0  0  0  0  0
   16.7016   -1.7212    0.0000 H   0  0  0  0  0  0  0  0  0  0  0  0
   16.7016    1.5188    0.0000 H   0  0  0  0  0  0  0  0  0  0  0  0
   18.1045   -0.9112    0.0000 H   0  0  0  0  0  0  0  0  0  0  0  0
   18.1045    0.7088    0.0000 H   0  0  0  0  0  0  0  0  0  0  0  0
  1 35  1  0  0  0  0
  2 17  2  0  0  0  0
  3 20  2  0  0  0  0
  4 27  2  0  0  0  0
  5 12  1  0  0  0  0
  5 38  1  0  0  0  0
  6 31  2  0  0  0  0
  7 37  1  0  0  0  0
  7 39  1  0  0  0  0
  8 37  2  0  0  0  0
 16  9  1  6  0  0  0
  9 17  1  0  0  0  0
  9 53  1  0  0  0  0
 14 10  1  1  0  0  0
 10 27  1  0  0  0  0
 10 61  1  0  0  0  0
 19 11  1  6  0  0  0
 11 20  1  0  0  0  0
 11 62  1  0  0  0  0
 12 30  2  0  0  0  0
 13 31  1  0  0  0  0
 13 74  1  0  0  0  0
 13 75  1  0  0  0  0
 14 15  1  0  0  0  0
 14 17  1  0  0  0  0
 14 48  1  0  0  0  0
 15 21  1  0  0  0  0
 15 22  1  0  0  0  0
 15 49  1  0  0  0  0
 16 18  1  0  0  0  0
 16 20  1  0  0  0  0
 16 50  1  0  0  0  0
 18 24  1  0  0  0  0
 18 51  1  0  0  0  0
 18 52  1  0  0  0  0
 19 23  1  0  0  0  0
 19 26  1  0  0  0  0
 19 54  1  0  0  0  0
 21 55  1  0  0  0  0
 21 56  1  0  0  0  0
 21 57  1  0  0  0  0
 22 58  1  0  0  0  0
 22 59  1  0  0  0  0
 22 60  1  0  0  0  0
 23 25  1  0  0  0  0
 23 63  1  0  0  0  0
 23 64  1  0  0  0  0
 24 28  2  0  0  0  0
 24 29  1  0  0  0  0
 25 31  1  0  0  0  0
 25 65  1  0  0  0  0
 25 66  1  0  0  0  0
 26 34  2  0  0  0  0
 26 67  1  0  0  0  0
 27 30  1  0  0  0  0
 28 32  1  0  0  0  0
 28 68  1  0  0  0  0
 29 33  2  0  0  0  0
 29 69  1  0  0  0  0
 30 36  1  0  0  0  0
 32 35  2  0  0  0  0
 32 70  1  0  0  0  0
 33 35  1  0  0  0  0
 33 71  1  0  0  0  0
 34 37  1  0  0  0  0
 34 72  1  0  0  0  0
 36 38  2  0  0  0  0
 36 73  1  0  0  0  0
 38 41  1  0  0  0  0
 39 40  1  0  0  0  0
 39 76  1  0  0  0  0
 39 77  1  0  0  0  0
 40 42  1  0  0  0  0
 40 78  1  0  0  0  0
 40 79  1  0  0  0  0
 41 80  1  0  0  0  0
 41 81  1  0  0  0  0
 41 82  1  0  0  0  0
 42 43  2  0  0  0  0
 42 44  1  0  0  0  0
 43 45  1  0  0  0  0
 43 83  1  0  0  0  0
 44 46  2  0  0  0  0
 44 84  1  0  0  0  0
 45 47  2  0  0  0  0
 45 85  1  0  0  0  0
 46 47  1  0  0  0  0
 46 86  1  0  0  0  0
 47 87  1  0  0  0  0
M  END
> <PUBCHEM_COMPOUND_CID>
142696597

> <PUBCHEM_COMPOUND_CANONICALIZED>
1

> <PUBCHEM_CACTVS_COMPLEXITY>
1080

> <PUBCHEM_CACTVS_HBOND_ACCEPTOR>
9

> <PUBCHEM_CACTVS_HBOND_DONOR>
4

> <PUBCHEM_CACTVS_ROTATABLE_BOND>
18

> <PUBCHEM_CACTVS_SUBSKEYS>
AAADcfB/uQAAAAAAAAAAAAAAAAAAAWAAAAAwYAAAAAAAAAAB0AAAHwAUAAAADSzhng4yjJLQBACpA6XyWgCCAAAmIgAomKG+bNoIZjqAtbOWMYhm1hmI6ce/yKCOAAAAAAAAAAAAAAAAAAAAAAAAAAAAAA==

> <PUBCHEM_IUPAC_OPENEYE_NAME>
2-phenylethyl (E,4S)-7-amino-4-[[(2S)-3-(4-fluorophenyl)-2-[[(2S)-3-methyl-2-[(5-methylisoxazole-3-carbonyl)amino]butanoyl]amino]propanoyl]amino]-7-oxo-hept-2-enoate

> <PUBCHEM_IUPAC_CAS_NAME>
(E,4S)-7-amino-4-[[(2S)-3-(4-fluorophenyl)-2-[[(2S)-3-methyl-2-[[(5-methyl-3-isoxazolyl)-oxomethyl]amino]-1-oxobutyl]amino]-1-oxopropyl]amino]-7-oxo-2-heptenoic acid 2-phenylethyl ester

> <PUBCHEM_IUPAC_NAME_MARKUP>
2-phenylethyl (<I>E</I>,4<I>S</I>)-7-amino-4-[[(2<I>S</I>)-3-(4-fluorophenyl)-2-[[(2<I>S</I>)-3-methyl-2-[(5-methyl-1,2-oxazole-3-carbonyl)amino]butanoyl]amino]propanoyl]amino]-7-oxohept-2-enoate

> <PUBCHEM_IUPAC_NAME>
2-phenylethyl (E,4S)-7-amino-4-[[(2S)-3-(4-fluorophenyl)-2-[[(2S)-3-methyl-2-[(5-methyl-1,2-oxazole-3-carbonyl)amino]butanoyl]amino]propanoyl]amino]-7-oxohept-2-enoate

> <PUBCHEM_IUPAC_SYSTEMATIC_NAME>
2-phenylethyl (E,4S)-7-azanyl-4-[[(2S)-3-(4-fluorophenyl)-2-[[(2S)-3-methyl-2-[(5-methyl-1,2-oxazol-3-yl)carbonylamino]butanoyl]amino]propanoyl]amino]-7-oxidanylidene-hept-2-enoate

> <PUBCHEM_IUPAC_TRADITIONAL_NAME>
(E,4S)-7-amino-4-[[(2S)-3-(4-fluorophenyl)-2-[[(2S)-3-methyl-2-[(5-methylisoxazole-3-carbonyl)amino]butanoyl]amino]propanoyl]amino]-7-keto-hept-2-enoic acid phenethyl ester

> <PUBCHEM_IUPAC_INCHI>
InChI=1S/C34H40FN5O7/c1-21(2)31(39-33(44)28-19-22(3)47-40-28)34(45)38-27(20-24-9-11-25(35)12-10-24)32(43)37-26(13-15-29(36)41)14-16-30(42)46-18-17-23-7-5-4-6-8-23/h4-12,14,16,19,21,26-27,31H,13,15,17-18,20H2,1-3H3,(H2,36,41)(H,37,43)(H,38,45)(H,39,44)/b16-14+/t26-,27-,31-/m0/s1

> <PUBCHEM_IUPAC_INCHIKEY>
FZICOKPELKXHEJ-NKSFFPPUSA-N

> <PUBCHEM_XLOGP3_AA>
3.9

> <PUBCHEM_EXACT_MASS>
649.291177

> <PUBCHEM_MOLECULAR_FORMULA>
C34H40FN5O7

> <PUBCHEM_MOLECULAR_WEIGHT>
649.7

> <PUBCHEM_OPENEYE_CAN_SMILES>
CC1=CC(=NO1)C(=O)NC(C(C)C)C(=O)NC(CC2=CC=C(C=C2)F)C(=O)NC(CCC(=O)N)C=CC(=O)OCCC3=CC=CC=C3

> <PUBCHEM_OPENEYE_ISO_SMILES>
CC1=CC(=NO1)C(=O)N[C@@H](C(C)C)C(=O)N[C@@H](CC2=CC=C(C=C2)F)C(=O)N[C@@H](CCC(=O)N)/C=C/C(=O)OCCC3=CC=CC=C3

> <PUBCHEM_CACTVS_TPSA>
183

> <PUBCHEM_MONOISOTOPIC_WEIGHT>
649.291177

> <PUBCHEM_TOTAL_CHARGE>
0

> <PUBCHEM_HEAVY_ATOM_COUNT>
47

> <PUBCHEM_ATOM_DEF_STEREO_COUNT>
3

> <PUBCHEM_ATOM_UDEF_STEREO_COUNT>
0

> <PUBCHEM_BOND_DEF_STEREO_COUNT>
1

> <PUBCHEM_BOND_UDEF_STEREO_COUNT>
0

> <PUBCHEM_ISOTOPIC_ATOM_COUNT>
0

> <PUBCHEM_COMPONENT_COUNT>
1

> <PUBCHEM_CACTVS_TAUTO_COUNT>
-1

> <PUBCHEM_COORDINATE_TYPE>
1
5
255

> <PUBCHEM_BONDANNOTATIONS>
14  10  5
19  11  6
12  30  8
24  28  8
24  29  8
28  32  8
29  33  8
30  36  8
32  35  8
33  35  8
36  38  8
42  43  8
42  44  8
43  45  8
44  46  8
45  47  8
46  47  8
5  12  8
5  38  8
16  9  6

$$$$
142696601
  -OEChem-02212016592D

 94 97  0     1  0  0  0  0  0999 V2000
    6.3092   -5.1012    0.0000 F   0  0  0  0  0  0  0  0  0  0  0  0
    5.4432    0.3988    0.0000 O   0  0  0  0  0  0  0  0  0  0  0  0
    8.0413   -2.1012    0.0000 O   0  0  0  0  0  0  0  0  0  0  0  0
    6.3092    3.8988    0.0000 O   0  0  0  0  0  0  0  0  0  0  0  0
   13.2375   -1.1012    0.0000 O   0  0  0  0  0  0  0  0  0  0  0  0
    3.4945    5.1012    0.0000 O   0  0  0  0  0  0  0  0  0  0  0  0
    9.7734   -4.1012    0.0000 O   0  0  0  0  0  0  0  0  0  0  0  0
   12.3714    0.3988    0.0000 O   0  0  0  0  0  0  0  0  0  0  0  0
    7.1753    0.3988    0.0000 N   0  0  0  0  0  0  0  0  0  0  0  0
    5.4432    2.3988    0.0000 N   0  0  0  0  0  0  0  0  0  0  0  0
    8.9073   -0.6012    0.0000 N   0  0  0  0  0  0  0  0  0  0  0  0
    4.4727    4.8933    0.0000 N   0  0  0  0  0  0  0  0  0  0  0  0
   11.5054   -4.1012    0.0000 N   0  0  0  0  0  0  0  0  0  0  0  0
    6.3092    1.8988    0.0000 C   0  0  1  0  0  0  0  0  0  0  0  0
    7.1753    2.3988    0.0000 C   0  0  0  0  0  0  0  0  0  0  0  0
    7.1753   -0.6012    0.0000 C   0  0  1  0  0  0  0  0  0  0  0  0
    6.3092    0.8988    0.0000 C   0  0  0  0  0  0  0  0  0  0  0  0
    6.3092   -1.1012    0.0000 C   0  0  0  0  0  0  0  0  0  0  0  0
    9.7734   -1.1012    0.0000 C   0  0  1  0  0  0  0  0  0  0  0  0
    8.0413   -1.1012    0.0000 C   0  0  0  0  0  0  0  0  0  0  0  0
    7.1753    3.3988    0.0000 C   0  0  0  0  0  0  0  0  0  0  0  0
    8.0413    1.8988    0.0000 C   0  0  0  0  0  0  0  0  0  0  0  0
    9.7734   -2.1012    0.0000 C   0  0  0  0  0  0  0  0  0  0  0  0
    6.3092   -2.1012    0.0000 C   0  0  0  0  0  0  0  0  0  0  0  0
   10.6394   -2.6012    0.0000 C   0  0  0  0  0  0  0  0  0  0  0  0
   10.6394   -0.6012    0.0000 C   0  0  0  0  0  0  0  0  0  0  0  0
    5.4432    3.3988    0.0000 C   0  0  0  0  0  0  0  0  0  0  0  0
    7.1753   -2.6012    0.0000 C   0  0  0  0  0  0  0  0  0  0  0  0
    5.4432   -2.6012    0.0000 C   0  0  0  0  0  0  0  0  0  0  0  0
    4.5772    3.8988    0.0000 C   0  0  0  0  0  0  0  0  0  0  0  0
   11.5054   -1.1012    0.0000 C   0  0  0  0  0  0  0  0  0  0  0  0
   10.6394   -3.6012    0.0000 C   0  0  0  0  0  0  0  0  0  0  0  0
    7.1753   -3.6012    0.0000 C   0  0  0  0  0  0  0  0  0  0  0  0
    5.4432   -3.6012    0.0000 C   0  0  0  0  0  0  0  0  0  0  0  0
    6.3092   -4.1012    0.0000 C   0  0  0  0  0  0  0  0  0  0  0  0
   14.1035   -0.6012    0.0000 C   0  0  0  0  0  0  0  0  0  0  0  0
   12.3714   -0.6012    0.0000 C   0  0  0  0  0  0  0  0  0  0  0  0
    3.6636    3.4920    0.0000 C   0  0  0  0  0  0  0  0  0  0  0  0
   14.9695   -1.1012    0.0000 C   0  0  0  0  0  0  0  0  0  0  0  0
   14.1035    0.3988    0.0000 C   0  0  0  0  0  0  0  0  0  0  0  0
    2.9945    4.2352    0.0000 C   0  0  0  0  0  0  0  0  0  0  0  0
   15.8355   -0.6012    0.0000 C   0  0  0  0  0  0  0  0  0  0  0  0
   14.9695    0.8988    0.0000 C   0  0  0  0  0  0  0  0  0  0  0  0
   14.9695   -2.1012    0.0000 C   0  0  0  0  0  0  0  0  0  0  0  0
   13.2375    0.8988    0.0000 C   0  0  0  0  0  0  0  0  0  0  0  0
    2.0000    4.1307    0.0000 C   0  0  0  0  0  0  0  0  0  0  0  0
   16.7016   -1.1012    0.0000 C   0  0  0  0  0  0  0  0  0  0  0  0
   14.9695    1.8988    0.0000 C   0  0  0  0  0  0  0  0  0  0  0  0
   15.8355   -2.6012    0.0000 C   0  0  0  0  0  0  0  0  0  0  0  0
   13.2375    1.8988    0.0000 C   0  0  0  0  0  0  0  0  0  0  0  0
   16.7016   -2.1012    0.0000 C   0  0  0  0  0  0  0  0  0  0  0  0
   14.1035    2.3988    0.0000 C   0  0  0  0  0  0  0  0  0  0  0  0
    6.3092    2.5188    0.0000 H   0  0  0  0  0  0  0  0  0  0  0  0
    7.1753    1.7788    0.0000 H   0  0  0  0  0  0  0  0  0  0  0  0
    7.7122   -0.2912    0.0000 H   0  0  0  0  0  0  0  0  0  0  0  0
    6.0972   -0.5186    0.0000 H   0  0  0  0  0  0  0  0  0  0  0  0
    5.6987   -1.2089    0.0000 H   0  0  0  0  0  0  0  0  0  0  0  0
    7.7122    0.7088    0.0000 H   0  0  0  0  0  0  0  0  0  0  0  0
    9.7734   -0.4812    0.0000 H   0  0  0  0  0  0  0  0  0  0  0  0
    7.7953    3.3988    0.0000 H   0  0  0  0  0  0  0  0  0  0  0  0
    7.1753    4.0188    0.0000 H   0  0  0  0  0  0  0  0  0  0  0  0
    6.5553    3.3988    0.0000 H   0  0  0  0  0  0  0  0  0  0  0  0
    7.7313    1.3618    0.0000 H   0  0  0  0  0  0  0  0  0  0  0  0
    8.5782    1.5888    0.0000 H   0  0  0  0  0  0  0  0  0  0  0  0
    8.3513    2.4357    0.0000 H   0  0  0  0  0  0  0  0  0  0  0  0
    4.9063    2.0888    0.0000 H   0  0  0  0  0  0  0  0  0  0  0  0
    8.9073    0.0188    0.0000 H   0  0  0  0  0  0  0  0  0  0  0  0
    9.1628   -1.9936    0.0000 H   0  0  0  0  0  0  0  0  0  0  0  0
    9.5613   -2.6838    0.0000 H   0  0  0  0  0  0  0  0  0  0  0  0
   11.2500   -2.7089    0.0000 H   0  0  0  0  0  0  0  0  0  0  0  0
   10.8514   -2.0186    0.0000 H   0  0  0  0  0  0  0  0  0  0  0  0
   10.6394    0.0188    0.0000 H   0  0  0  0  0  0  0  0  0  0  0  0
    7.7122   -2.2912    0.0000 H   0  0  0  0  0  0  0  0  0  0  0  0
    4.9063   -2.2912    0.0000 H   0  0  0  0  0  0  0  0  0  0  0  0
   11.5054   -1.7212    0.0000 H   0  0  0  0  0  0  0  0  0  0  0  0
    7.7122   -3.9112    0.0000 H   0  0  0  0  0  0  0  0  0  0  0  0
    4.9063   -3.9112    0.0000 H   0  0  0  0  0  0  0  0  0  0  0  0
   14.1035   -1.2212    0.0000 H   0  0  0  0  0  0  0  0  0  0  0  0
    3.5348    2.8856    0.0000 H   0  0  0  0  0  0  0  0  0  0  0  0
   11.5054   -4.7212    0.0000 H   0  0  0  0  0  0  0  0  0  0  0  0
   12.0423   -3.7912    0.0000 H   0  0  0  0  0  0  0  0  0  0  0  0
   15.8355    0.0188    0.0000 H   0  0  0  0  0  0  0  0  0  0  0  0
   15.5064    0.5888    0.0000 H   0  0  0  0  0  0  0  0  0  0  0  0
   14.4326   -2.4112    0.0000 H   0  0  0  0  0  0  0  0  0  0  0  0
   12.7005    0.5888    0.0000 H   0  0  0  0  0  0  0  0  0  0  0  0
    1.9352    4.7473    0.0000 H   0  0  0  0  0  0  0  0  0  0  0  0
    1.3834    4.0659    0.0000 H   0  0  0  0  0  0  0  0  0  0  0  0
    2.0648    3.5141    0.0000 H   0  0  0  0  0  0  0  0  0  0  0  0
   17.2385   -0.7912    0.0000 H   0  0  0  0  0  0  0  0  0  0  0  0
   15.5064    2.2088    0.0000 H   0  0  0  0  0  0  0  0  0  0  0  0
   15.8355   -3.2212    0.0000 H   0  0  0  0  0  0  0  0  0  0  0  0
   12.7005    2.2088    0.0000 H   0  0  0  0  0  0  0  0  0  0  0  0
   17.2385   -2.4112    0.0000 H   0  0  0  0  0  0  0  0  0  0  0  0
   14.1035    3.0188    0.0000 H   0  0  0  0  0  0  0  0  0  0  0  0
  1 35  1  0  0  0  0
  2 17  2  0  0  0  0
  3 20  2  0  0  0  0
  4 27  2  0  0  0  0
  5 36  1  0  0  0  0
  5 37  1  0  0  0  0
  6 12  1  0  0  0  0
  6 41  1  0  0  0  0
  7 32  2  0  0  0  0
  8 37  2  0  0  0  0
 16  9  1  6  0  0  0
  9 17  1  0  0  0  0
  9 58  1  0  0  0  0
 14 10  1  1  0  0  0
 10 27  1  0  0  0  0
 10 66  1  0  0  0  0
 19 11  1  6  0  0  0
 11 20  1  0  0  0  0
 11 67  1  0  0  0  0
 12 30  2  0  0  0  0
 13 32  1  0  0  0  0
 13 80  1  0  0  0  0
 13 81  1  0  0  0  0
 14 15  1  0  0  0  0
 14 17  1  0  0  0  0
 14 53  1  0  0  0  0
 15 21  1  0  0  0  0
 15 22  1  0  0  0  0
 15 54  1  0  0  0  0
 16 18  1  0  0  0  0
 16 20  1  0  0  0  0
 16 55  1  0  0  0  0
 18 24  1  0  0  0  0
 18 56  1  0  0  0  0
 18 57  1  0  0  0  0
 19 23  1  0  0  0  0
 19 26  1  0  0  0  0
 19 59  1  0  0  0  0
 21 60  1  0  0  0  0
 21 61  1  0  0  0  0
 21 62  1  0  0  0  0
 22 63  1  0  0  0  0
 22 64  1  0  0  0  0
 22 65  1  0  0  0  0
 23 25  1  0  0  0  0
 23 68  1  0  0  0  0
 23 69  1  0  0  0  0
 24 28  2  0  0  0  0
 24 29  1  0  0  0  0
 25 32  1  0  0  0  0
 25 70  1  0  0  0  0
 25 71  1  0  0  0  0
 26 31  2  0  0  0  0
 26 72  1  0  0  0  0
 27 30  1  0  0  0  0
 28 33  1  0  0  0  0
 28 73  1  0  0  0  0
 29 34  2  0  0  0  0
 29 74  1  0  0  0  0
 30 38  1  0  0  0  0
 31 37  1  0  0  0  0
 31 75  1  0  0  0  0
 33 35  2  0  0  0  0
 33 76  1  0  0  0  0
 34 35  1  0  0  0  0
 34 77  1  0  0  0  0
 36 39  1  0  0  0  0
 36 40  1  0  0  0  0
 36 78  1  0  0  0  0
 38 41  2  0  0  0  0
 38 79  1  0  0  0  0
 39 42  2  0  0  0  0
 39 44  1  0  0  0  0
 40 43  2  0  0  0  0
 40 45  1  0  0  0  0
 41 46  1  0  0  0  0
 42 47  1  0  0  0  0
 42 82  1  0  0  0  0
 43 48  1  0  0  0  0
 43 83  1  0  0  0  0
 44 49  2  0  0  0  0
 44 84  1  0  0  0  0
 45 50  2  0  0  0  0
 45 85  1  0  0  0  0
 46 86  1  0  0  0  0
 46 87  1  0  0  0  0
 46 88  1  0  0  0  0
 47 51  2  0  0  0  0
 47 89  1  0  0  0  0
 48 52  2  0  0  0  0
 48 90  1  0  0  0  0
 49 51  1  0  0  0  0
 49 91  1  0  0  0  0
 50 52  1  0  0  0  0
 50 92  1  0  0  0  0
 51 93  1  0  0  0  0
 52 94  1  0  0  0  0
M  END
> <PUBCHEM_COMPOUND_CID>
142696601

> <PUBCHEM_COMPOUND_CANONICALIZED>
1

> <PUBCHEM_CACTVS_COMPLEXITY>
1200

> <PUBCHEM_CACTVS_HBOND_ACCEPTOR>
9

> <PUBCHEM_CACTVS_HBOND_DONOR>
4

> <PUBCHEM_CACTVS_ROTATABLE_BOND>
18

> <PUBCHEM_CACTVS_SUBSKEYS>
AAADcfB/uQAAAAAAAAAAAAAAAAAAAWAAAAAwYMAAAAAAAAAB1AAAHwAUAAAADTzhng4yjJLQBACpA6XyWgCCAAAmIgAomKG+bNoIZjqAtbuWMYhm1hmI6ce/yOCOAAAAAAAAAAAAAAAAAAAAAAAAAAAAAA==

> <PUBCHEM_IUPAC_OPENEYE_NAME>
benzhydryl (E,4S)-7-amino-4-[[(2S)-3-(4-fluorophenyl)-2-[[(2S)-3-methyl-2-[(5-methylisoxazole-3-carbonyl)amino]butanoyl]amino]propanoyl]amino]-7-oxo-hept-2-enoate

> <PUBCHEM_IUPAC_CAS_NAME>
(E,4S)-7-amino-4-[[(2S)-3-(4-fluorophenyl)-2-[[(2S)-3-methyl-2-[[(5-methyl-3-isoxazolyl)-oxomethyl]amino]-1-oxobutyl]amino]-1-oxopropyl]amino]-7-oxo-2-heptenoic acid (diphenylmethyl) ester

> <PUBCHEM_IUPAC_NAME_MARKUP>
benzhydryl (<I>E</I>,4<I>S</I>)-7-amino-4-[[(2<I>S</I>)-3-(4-fluorophenyl)-2-[[(2<I>S</I>)-3-methyl-2-[(5-methyl-1,2-oxazole-3-carbonyl)amino]butanoyl]amino]propanoyl]amino]-7-oxohept-2-enoate

> <PUBCHEM_IUPAC_NAME>
benzhydryl (E,4S)-7-amino-4-[[(2S)-3-(4-fluorophenyl)-2-[[(2S)-3-methyl-2-[(5-methyl-1,2-oxazole-3-carbonyl)amino]butanoyl]amino]propanoyl]amino]-7-oxohept-2-enoate

> <PUBCHEM_IUPAC_SYSTEMATIC_NAME>
(diphenylmethyl) (E,4S)-7-azanyl-4-[[(2S)-3-(4-fluorophenyl)-2-[[(2S)-3-methyl-2-[(5-methyl-1,2-oxazol-3-yl)carbonylamino]butanoyl]amino]propanoyl]amino]-7-oxidanylidene-hept-2-enoate

> <PUBCHEM_IUPAC_TRADITIONAL_NAME>
(E,4S)-7-amino-4-[[(2S)-3-(4-fluorophenyl)-2-[[(2S)-3-methyl-2-[(5-methylisoxazole-3-carbonyl)amino]butanoyl]amino]propanoyl]amino]-7-keto-hept-2-enoic acid benzhydryl ester

> <PUBCHEM_IUPAC_INCHI>
InChI=1S/C39H42FN5O7/c1-24(2)35(44-38(49)32-22-25(3)52-45-32)39(50)43-31(23-26-14-16-29(40)17-15-26)37(48)42-30(18-20-33(41)46)19-21-34(47)51-36(27-10-6-4-7-11-27)28-12-8-5-9-13-28/h4-17,19,21-22,24,30-31,35-36H,18,20,23H2,1-3H3,(H2,41,46)(H,42,48)(H,43,50)(H,44,49)/b21-19+/t30-,31-,35-/m0/s1

> <PUBCHEM_IUPAC_INCHIKEY>
GBAGXGAUEHIIBH-VCWJAJODSA-N

> <PUBCHEM_XLOGP3_AA>
5.1

> <PUBCHEM_EXACT_MASS>
711.306827

> <PUBCHEM_MOLECULAR_FORMULA>
C39H42FN5O7

> <PUBCHEM_MOLECULAR_WEIGHT>
711.8

> <PUBCHEM_OPENEYE_CAN_SMILES>
CC1=CC(=NO1)C(=O)NC(C(C)C)C(=O)NC(CC2=CC=C(C=C2)F)C(=O)NC(CCC(=O)N)C=CC(=O)OC(C3=CC=CC=C3)C4=CC=CC=C4

> <PUBCHEM_OPENEYE_ISO_SMILES>
CC1=CC(=NO1)C(=O)N[C@@H](C(C)C)C(=O)N[C@@H](CC2=CC=C(C=C2)F)C(=O)N[C@@H](CCC(=O)N)/C=C/C(=O)OC(C3=CC=CC=C3)C4=CC=CC=C4

> <PUBCHEM_CACTVS_TPSA>
183

> <PUBCHEM_MONOISOTOPIC_WEIGHT>
711.306827

> <PUBCHEM_TOTAL_CHARGE>
0

> <PUBCHEM_HEAVY_ATOM_COUNT>
52

> <PUBCHEM_ATOM_DEF_STEREO_COUNT>
3

> <PUBCHEM_ATOM_UDEF_STEREO_COUNT>
0

> <PUBCHEM_BOND_DEF_STEREO_COUNT>
1

> <PUBCHEM_BOND_UDEF_STEREO_COUNT>
0

> <PUBCHEM_ISOTOPIC_ATOM_COUNT>
0

> <PUBCHEM_COMPONENT_COUNT>
1

> <PUBCHEM_CACTVS_TAUTO_COUNT>
-1

> <PUBCHEM_COORDINATE_TYPE>
1
5
255

> <PUBCHEM_BONDANNOTATIONS>
14  10  5
19  11  6
12  30  8
24  28  8
24  29  8
28  33  8
29  34  8
30  38  8
33  35  8
34  35  8
38  41  8
39  42  8
39  44  8
40  43  8
40  45  8
42  47  8
43  48  8
44  49  8
45  50  8
47  51  8
48  52  8
49  51  8
50  52  8
6  12  8
6  41  8
16  9  6

$$$$
142696602
  -OEChem-02212016592D

 87 89  0     1  0  0  0  0  0999 V2000
    6.3092   -5.1012    0.0000 F   0  0  0  0  0  0  0  0  0  0  0  0
   18.4336    0.8988    0.0000 F   0  0  0  0  0  0  0  0  0  0  0  0
    5.4432    0.3988    0.0000 O   0  0  0  0  0  0  0  0  0  0  0  0
    8.0413   -2.1012    0.0000 O   0  0  0  0  0  0  0  0  0  0  0  0
    6.3092    3.8988    0.0000 O   0  0  0  0  0  0  0  0  0  0  0  0
    3.4945    5.1012    0.0000 O   0  0  0  0  0  0  0  0  0  0  0  0
    9.7734   -4.1012    0.0000 O   0  0  0  0  0  0  0  0  0  0  0  0
   13.2375   -1.1012    0.0000 O   0  0  0  0  0  0  0  0  0  0  0  0
   12.3714    0.3988    0.0000 O   0  0  0  0  0  0  0  0  0  0  0  0
    7.1753    0.3988    0.0000 N   0  0  0  0  0  0  0  0  0  0  0  0
    5.4432    2.3988    0.0000 N   0  0  0  0  0  0  0  0  0  0  0  0
    8.9073   -0.6012    0.0000 N   0  0  0  0  0  0  0  0  0  0  0  0
    4.4727    4.8933    0.0000 N   0  0  0  0  0  0  0  0  0  0  0  0
   11.5054   -4.1012    0.0000 N   0  0  0  0  0  0  0  0  0  0  0  0
    6.3092    1.8988    0.0000 C   0  0  1  0  0  0  0  0  0  0  0  0
    7.1753    2.3988    0.0000 C   0  0  0  0  0  0  0  0  0  0  0  0
    7.1753   -0.6012    0.0000 C   0  0  1  0  0  0  0  0  0  0  0  0
    6.3092    0.8988    0.0000 C   0  0  0  0  0  0  0  0  0  0  0  0
    6.3092   -1.1012    0.0000 C   0  0  0  0  0  0  0  0  0  0  0  0
    9.7734   -1.1012    0.0000 C   0  0  1  0  0  0  0  0  0  0  0  0
    8.0413   -1.1012    0.0000 C   0  0  0  0  0  0  0  0  0  0  0  0
    7.1753    3.3988    0.0000 C   0  0  0  0  0  0  0  0  0  0  0  0
    8.0413    1.8988    0.0000 C   0  0  0  0  0  0  0  0  0  0  0  0
    9.7734   -2.1012    0.0000 C   0  0  0  0  0  0  0  0  0  0  0  0
    6.3092   -2.1012    0.0000 C   0  0  0  0  0  0  0  0  0  0  0  0
   10.6394   -2.6012    0.0000 C   0  0  0  0  0  0  0  0  0  0  0  0
   10.6394   -0.6012    0.0000 C   0  0  0  0  0  0  0  0  0  0  0  0
    5.4432    3.3988    0.0000 C   0  0  0  0  0  0  0  0  0  0  0  0
    7.1753   -2.6012    0.0000 C   0  0  0  0  0  0  0  0  0  0  0  0
    5.4432   -2.6012    0.0000 C   0  0  0  0  0  0  0  0  0  0  0  0
    4.5772    3.8988    0.0000 C   0  0  0  0  0  0  0  0  0  0  0  0
   10.6394   -3.6012    0.0000 C   0  0  0  0  0  0  0  0  0  0  0  0
    7.1753   -3.6012    0.0000 C   0  0  0  0  0  0  0  0  0  0  0  0
    5.4432   -3.6012    0.0000 C   0  0  0  0  0  0  0  0  0  0  0  0
   11.5054   -1.1012    0.0000 C   0  0  0  0  0  0  0  0  0  0  0  0
    6.3092   -4.1012    0.0000 C   0  0  0  0  0  0  0  0  0  0  0  0
    3.6636    3.4920    0.0000 C   0  0  0  0  0  0  0  0  0  0  0  0
   12.3714   -0.6012    0.0000 C   0  0  0  0  0  0  0  0  0  0  0  0
    2.9945    4.2352    0.0000 C   0  0  0  0  0  0  0  0  0  0  0  0
   14.1035   -0.6012    0.0000 C   0  0  0  0  0  0  0  0  0  0  0  0
   14.9695   -1.1012    0.0000 C   0  0  0  0  0  0  0  0  0  0  0  0
    2.0000    4.1307    0.0000 C   0  0  0  0  0  0  0  0  0  0  0  0
   15.8355   -0.6012    0.0000 C   0  0  0  0  0  0  0  0  0  0  0  0
   15.8355    0.3988    0.0000 C   0  0  0  0  0  0  0  0  0  0  0  0
   16.7016   -1.1012    0.0000 C   0  0  0  0  0  0  0  0  0  0  0  0
   16.7016    0.8988    0.0000 C   0  0  0  0  0  0  0  0  0  0  0  0
   17.5676   -0.6012    0.0000 C   0  0  0  0  0  0  0  0  0  0  0  0
   17.5676    0.3988    0.0000 C   0  0  0  0  0  0  0  0  0  0  0  0
    6.3092    2.5188    0.0000 H   0  0  0  0  0  0  0  0  0  0  0  0
    7.1753    1.7788    0.0000 H   0  0  0  0  0  0  0  0  0  0  0  0
    7.7122   -0.2912    0.0000 H   0  0  0  0  0  0  0  0  0  0  0  0
    6.0972   -0.5186    0.0000 H   0  0  0  0  0  0  0  0  0  0  0  0
    5.6987   -1.2089    0.0000 H   0  0  0  0  0  0  0  0  0  0  0  0
    7.7122    0.7088    0.0000 H   0  0  0  0  0  0  0  0  0  0  0  0
    9.7734   -0.4812    0.0000 H   0  0  0  0  0  0  0  0  0  0  0  0
    7.7953    3.3988    0.0000 H   0  0  0  0  0  0  0  0  0  0  0  0
    7.1753    4.0188    0.0000 H   0  0  0  0  0  0  0  0  0  0  0  0
    6.5553    3.3988    0.0000 H   0  0  0  0  0  0  0  0  0  0  0  0
    7.7313    1.3618    0.0000 H   0  0  0  0  0  0  0  0  0  0  0  0
    8.5782    1.5888    0.0000 H   0  0  0  0  0  0  0  0  0  0  0  0
    8.3513    2.4357    0.0000 H   0  0  0  0  0  0  0  0  0  0  0  0
    4.9063    2.0888    0.0000 H   0  0  0  0  0  0  0  0  0  0  0  0
    8.9073    0.0188    0.0000 H   0  0  0  0  0  0  0  0  0  0  0  0
    9.1628   -1.9936    0.0000 H   0  0  0  0  0  0  0  0  0  0  0  0
    9.5613   -2.6838    0.0000 H   0  0  0  0  0  0  0  0  0  0  0  0
   11.2500   -2.7089    0.0000 H   0  0  0  0  0  0  0  0  0  0  0  0
   10.8514   -2.0186    0.0000 H   0  0  0  0  0  0  0  0  0  0  0  0
   10.6394    0.0188    0.0000 H   0  0  0  0  0  0  0  0  0  0  0  0
    7.7122   -2.2912    0.0000 H   0  0  0  0  0  0  0  0  0  0  0  0
    4.9063   -2.2912    0.0000 H   0  0  0  0  0  0  0  0  0  0  0  0
    7.7122   -3.9112    0.0000 H   0  0  0  0  0  0  0  0  0  0  0  0
    4.9063   -3.9112    0.0000 H   0  0  0  0  0  0  0  0  0  0  0  0
   11.5054   -1.7212    0.0000 H   0  0  0  0  0  0  0  0  0  0  0  0
    3.5348    2.8856    0.0000 H   0  0  0  0  0  0  0  0  0  0  0  0
   11.5054   -4.7212    0.0000 H   0  0  0  0  0  0  0  0  0  0  0  0
   12.0423   -3.7912    0.0000 H   0  0  0  0  0  0  0  0  0  0  0  0
   14.5020   -0.1263    0.0000 H   0  0  0  0  0  0  0  0  0  0  0  0
   13.7049   -0.1263    0.0000 H   0  0  0  0  0  0  0  0  0  0  0  0
   14.5710   -1.5762    0.0000 H   0  0  0  0  0  0  0  0  0  0  0  0
   15.3680   -1.5762    0.0000 H   0  0  0  0  0  0  0  0  0  0  0  0
    1.9352    4.7473    0.0000 H   0  0  0  0  0  0  0  0  0  0  0  0
    1.3834    4.0659    0.0000 H   0  0  0  0  0  0  0  0  0  0  0  0
    2.0648    3.5141    0.0000 H   0  0  0  0  0  0  0  0  0  0  0  0
   15.2986    0.7088    0.0000 H   0  0  0  0  0  0  0  0  0  0  0  0
   16.7016   -1.7212    0.0000 H   0  0  0  0  0  0  0  0  0  0  0  0
   16.7016    1.5188    0.0000 H   0  0  0  0  0  0  0  0  0  0  0  0
   18.1045   -0.9112    0.0000 H   0  0  0  0  0  0  0  0  0  0  0  0
  1 36  1  0  0  0  0
  2 48  1  0  0  0  0
  3 18  2  0  0  0  0
  4 21  2  0  0  0  0
  5 28  2  0  0  0  0
  6 13  1  0  0  0  0
  6 39  1  0  0  0  0
  7 32  2  0  0  0  0
  8 38  1  0  0  0  0
  8 40  1  0  0  0  0
  9 38  2  0  0  0  0
 17 10  1  6  0  0  0
 10 18  1  0  0  0  0
 10 54  1  0  0  0  0
 15 11  1  1  0  0  0
 11 28  1  0  0  0  0
 11 62  1  0  0  0  0
 20 12  1  6  0  0  0
 12 21  1  0  0  0  0
 12 63  1  0  0  0  0
 13 31  2  0  0  0  0
 14 32  1  0  0  0  0
 14 75  1  0  0  0  0
 14 76  1  0  0  0  0
 15 16  1  0  0  0  0
 15 18  1  0  0  0  0
 15 49  1  0  0  0  0
 16 22  1  0  0  0  0
 16 23  1  0  0  0  0
 16 50  1  0  0  0  0
 17 19  1  0  0  0  0
 17 21  1  0  0  0  0
 17 51  1  0  0  0  0
 19 25  1  0  0  0  0
 19 52  1  0  0  0  0
 19 53  1  0  0  0  0
 20 24  1  0  0  0  0
 20 27  1  0  0  0  0
 20 55  1  0  0  0  0
 22 56  1  0  0  0  0
 22 57  1  0  0  0  0
 22 58  1  0  0  0  0
 23 59  1  0  0  0  0
 23 60  1  0  0  0  0
 23 61  1  0  0  0  0
 24 26  1  0  0  0  0
 24 64  1  0  0  0  0
 24 65  1  0  0  0  0
 25 29  2  0  0  0  0
 25 30  1  0  0  0  0
 26 32  1  0  0  0  0
 26 66  1  0  0  0  0
 26 67  1  0  0  0  0
 27 35  2  0  0  0  0
 27 68  1  0  0  0  0
 28 31  1  0  0  0  0
 29 33  1  0  0  0  0
 29 69  1  0  0  0  0
 30 34  2  0  0  0  0
 30 70  1  0  0  0  0
 31 37  1  0  0  0  0
 33 36  2  0  0  0  0
 33 71  1  0  0  0  0
 34 36  1  0  0  0  0
 34 72  1  0  0  0  0
 35 38  1  0  0  0  0
 35 73  1  0  0  0  0
 37 39  2  0  0  0  0
 37 74  1  0  0  0  0
 39 42  1  0  0  0  0
 40 41  1  0  0  0  0
 40 77  1  0  0  0  0
 40 78  1  0  0  0  0
 41 43  1  0  0  0  0
 41 79  1  0  0  0  0
 41 80  1  0  0  0  0
 42 81  1  0  0  0  0
 42 82  1  0  0  0  0
 42 83  1  0  0  0  0
 43 44  2  0  0  0  0
 43 45  1  0  0  0  0
 44 46  1  0  0  0  0
 44 84  1  0  0  0  0
 45 47  2  0  0  0  0
 45 85  1  0  0  0  0
 46 48  2  0  0  0  0
 46 86  1  0  0  0  0
 47 48  1  0  0  0  0
 47 87  1  0  0  0  0
M  END
> <PUBCHEM_COMPOUND_CID>
142696602

> <PUBCHEM_COMPOUND_CANONICALIZED>
1

> <PUBCHEM_CACTVS_COMPLEXITY>
1110

> <PUBCHEM_CACTVS_HBOND_ACCEPTOR>
10

> <PUBCHEM_CACTVS_HBOND_DONOR>
4

> <PUBCHEM_CACTVS_ROTATABLE_BOND>
18

> <PUBCHEM_CACTVS_SUBSKEYS>
AAADcfB/uYAAAAAAAAAAAAAAAAAAAWAAAAAwYAAAAAAAAAAB0AAAHwAUAAAADSzhng4yjJLQBACpA6XyWgCCAAAmIgAomKG+bNoIZjqAtbOWMYhm1hmI6ce/yKCOAAAAAAAAAAAAAAAAAAAAAAAAAAAAAA==

> <PUBCHEM_IUPAC_OPENEYE_NAME>
2-(4-fluorophenyl)ethyl (E,4S)-7-amino-4-[[(2S)-3-(4-fluorophenyl)-2-[[(2S)-3-methyl-2-[(5-methylisoxazole-3-carbonyl)amino]butanoyl]amino]propanoyl]amino]-7-oxo-hept-2-enoate

> <PUBCHEM_IUPAC_CAS_NAME>
(E,4S)-7-amino-4-[[(2S)-3-(4-fluorophenyl)-2-[[(2S)-3-methyl-2-[[(5-methyl-3-isoxazolyl)-oxomethyl]amino]-1-oxobutyl]amino]-1-oxopropyl]amino]-7-oxo-2-heptenoic acid 2-(4-fluorophenyl)ethyl ester

> <PUBCHEM_IUPAC_NAME_MARKUP>
2-(4-fluorophenyl)ethyl (<I>E</I>,4<I>S</I>)-7-amino-4-[[(2<I>S</I>)-3-(4-fluorophenyl)-2-[[(2<I>S</I>)-3-methyl-2-[(5-methyl-1,2-oxazole-3-carbonyl)amino]butanoyl]amino]propanoyl]amino]-7-oxohept-2-enoate

> <PUBCHEM_IUPAC_NAME>
2-(4-fluorophenyl)ethyl (E,4S)-7-amino-4-[[(2S)-3-(4-fluorophenyl)-2-[[(2S)-3-methyl-2-[(5-methyl-1,2-oxazole-3-carbonyl)amino]butanoyl]amino]propanoyl]amino]-7-oxohept-2-enoate

> <PUBCHEM_IUPAC_SYSTEMATIC_NAME>
2-(4-fluorophenyl)ethyl (E,4S)-7-azanyl-4-[[(2S)-3-(4-fluorophenyl)-2-[[(2S)-3-methyl-2-[(5-methyl-1,2-oxazol-3-yl)carbonylamino]butanoyl]amino]propanoyl]amino]-7-oxidanylidene-hept-2-enoate

> <PUBCHEM_IUPAC_TRADITIONAL_NAME>
(E,4S)-7-amino-4-[[(2S)-3-(4-fluorophenyl)-2-[[(2S)-3-methyl-2-[(5-methylisoxazole-3-carbonyl)amino]butanoyl]amino]propanoyl]amino]-7-keto-hept-2-enoic acid 2-(4-fluorophenyl)ethyl ester

> <PUBCHEM_IUPAC_INCHI>
InChI=1S/C34H39F2N5O7/c1-20(2)31(40-33(45)28-18-21(3)48-41-28)34(46)39-27(19-23-6-10-25(36)11-7-23)32(44)38-26(12-14-29(37)42)13-15-30(43)47-17-16-22-4-8-24(35)9-5-22/h4-11,13,15,18,20,26-27,31H,12,14,16-17,19H2,1-3H3,(H2,37,42)(H,38,44)(H,39,46)(H,40,45)/b15-13+/t26-,27-,31-/m0/s1

> <PUBCHEM_IUPAC_INCHIKEY>
GFNMPTCKYNNGPV-NOOBJPGTSA-N

> <PUBCHEM_XLOGP3_AA>
4

> <PUBCHEM_EXACT_MASS>
667.281755

> <PUBCHEM_MOLECULAR_FORMULA>
C34H39F2N5O7

> <PUBCHEM_MOLECULAR_WEIGHT>
667.7

> <PUBCHEM_OPENEYE_CAN_SMILES>
CC1=CC(=NO1)C(=O)NC(C(C)C)C(=O)NC(CC2=CC=C(C=C2)F)C(=O)NC(CCC(=O)N)C=CC(=O)OCCC3=CC=C(C=C3)F

> <PUBCHEM_OPENEYE_ISO_SMILES>
CC1=CC(=NO1)C(=O)N[C@@H](C(C)C)C(=O)N[C@@H](CC2=CC=C(C=C2)F)C(=O)N[C@@H](CCC(=O)N)/C=C/C(=O)OCCC3=CC=C(C=C3)F

> <PUBCHEM_CACTVS_TPSA>
183

> <PUBCHEM_MONOISOTOPIC_WEIGHT>
667.281755

> <PUBCHEM_TOTAL_CHARGE>
0

> <PUBCHEM_HEAVY_ATOM_COUNT>
48

> <PUBCHEM_ATOM_DEF_STEREO_COUNT>
3

> <PUBCHEM_ATOM_UDEF_STEREO_COUNT>
0

> <PUBCHEM_BOND_DEF_STEREO_COUNT>
1

> <PUBCHEM_BOND_UDEF_STEREO_COUNT>
0

> <PUBCHEM_ISOTOPIC_ATOM_COUNT>
0

> <PUBCHEM_COMPONENT_COUNT>
1

> <PUBCHEM_CACTVS_TAUTO_COUNT>
-1

> <PUBCHEM_COORDINATE_TYPE>
1
5
255

> <PUBCHEM_BONDANNOTATIONS>
17  10  6
15  11  5
20  12  6
13  31  8
25  29  8
25  30  8
29  33  8
30  34  8
31  37  8
33  36  8
34  36  8
37  39  8
43  44  8
43  45  8
44  46  8
45  47  8
46  48  8
47  48  8
6  13  8
6  39  8

$$$$
143215513
  -OEChem-02212016592D

100102  0     1  0  0  0  0  0999 V2000
   11.7817   -3.0588    0.0000 O   0  0  0  0  0  0  0  0  0  0  0  0
    6.3301   -0.1739    0.0000 O   0  0  0  0  0  0  0  0  0  0  0  0
    7.1962   -0.6739    0.0000 O   0  0  0  0  0  0  0  0  0  0  0  0
    5.4641    3.3261    0.0000 O   0  0  0  0  0  0  0  0  0  0  0  0
    7.1962   -4.6739    0.0000 O   0  0  0  0  0  0  0  0  0  0  0  0
    6.3301   -3.1739    0.0000 O   0  0  0  0  0  0  0  0  0  0  0  0
    2.0000    4.3261    0.0000 O   0  0  0  0  0  0  0  0  0  0  0  0
    2.3660    7.3649    0.0000 O   0  0  0  0  0  0  0  0  0  0  0  0
    7.1962    1.3261    0.0000 N   0  0  0  0  0  0  0  0  0  0  0  0
   12.2429   -1.3375    0.0000 N   0  0  0  0  0  0  0  0  0  0  0  0
    8.9282   -0.6739    0.0000 N   0  0  0  0  0  0  0  0  0  0  0  0
    4.5981    1.8261    0.0000 N   0  0  0  0  0  0  0  0  0  0  0  0
    3.7320    4.3261    0.0000 N   0  0  0  0  0  0  0  0  0  0  0  0
    2.0570    6.4139    0.0000 N   0  0  0  0  0  0  0  0  0  0  0  0
   10.6603   -1.6739    0.0000 C   0  0  2  0  0  0  0  0  0  0  0  0
    5.4641    1.3261    0.0000 C   0  0  2  0  0  0  0  0  0  0  0  0
    9.7942   -2.1739    0.0000 C   0  0  0  0  0  0  0  0  0  0  0  0
   10.7648   -0.6794    0.0000 C   0  0  0  0  0  0  0  0  0  0  0  0
    4.9641    0.4600    0.0000 C   0  0  0  0  0  0  0  0  0  0  0  0
    8.9282   -1.6739    0.0000 C   0  0  1  0  0  0  0  0  0  0  0  0
    8.0622    0.8261    0.0000 C   0  0  1  0  0  0  0  0  0  0  0  0
   11.7429   -0.4715    0.0000 C   0  0  0  0  0  0  0  0  0  0  0  0
   11.5738   -2.0807    0.0000 C   0  0  0  0  0  0  0  0  0  0  0  0
    8.9282    1.3261    0.0000 C   0  0  0  0  0  0  0  0  0  0  0  0
    6.3301    0.8261    0.0000 C   0  0  0  0  0  0  0  0  0  0  0  0
    8.9282    2.3261    0.0000 C   0  0  0  0  0  0  0  0  0  0  0  0
    5.9641    2.1921    0.0000 C   0  0  0  0  0  0  0  0  0  0  0  0
    8.0622   -0.1739    0.0000 C   0  0  0  0  0  0  0  0  0  0  0  0
    3.9641    0.4600    0.0000 C   0  0  0  0  0  0  0  0  0  0  0  0
    5.4641   -0.4060    0.0000 C   0  0  0  0  0  0  0  0  0  0  0  0
    8.0622   -2.1739    0.0000 C   0  0  0  0  0  0  0  0  0  0  0  0
    4.5981    2.8261    0.0000 C   0  0  0  0  0  0  0  0  0  0  0  0
    9.7942    2.8261    0.0000 C   0  0  0  0  0  0  0  0  0  0  0  0
    8.0622    2.8261    0.0000 C   0  0  0  0  0  0  0  0  0  0  0  0
    3.7320    3.3261    0.0000 C   0  0  2  0  0  0  0  0  0  0  0  0
    8.0622   -3.1739    0.0000 C   0  0  0  0  0  0  0  0  0  0  0  0
    2.8660    2.8261    0.0000 C   0  0  0  0  0  0  0  0  0  0  0  0
    7.1962   -3.6739    0.0000 C   0  0  0  0  0  0  0  0  0  0  0  0
    2.8660    4.8261    0.0000 C   0  0  0  0  0  0  0  0  0  0  0  0
    2.8660    5.8261    0.0000 C   0  0  0  0  0  0  0  0  0  0  0  0
    6.3301   -5.1739    0.0000 C   0  0  0  0  0  0  0  0  0  0  0  0
    3.6750    6.4139    0.0000 C   0  0  0  0  0  0  0  0  0  0  0  0
    6.3301   -6.1739    0.0000 C   0  0  0  0  0  0  0  0  0  0  0  0
    3.3660    7.3649    0.0000 C   0  0  0  0  0  0  0  0  0  0  0  0
    7.1962   -6.6739    0.0000 C   0  0  0  0  0  0  0  0  0  0  0  0
    5.4641   -6.6739    0.0000 C   0  0  0  0  0  0  0  0  0  0  0  0
    3.9538    8.1739    0.0000 C   0  0  0  0  0  0  0  0  0  0  0  0
    7.1962   -7.6739    0.0000 C   0  0  0  0  0  0  0  0  0  0  0  0
    5.4641   -7.6739    0.0000 C   0  0  0  0  0  0  0  0  0  0  0  0
    6.3301   -8.1739    0.0000 C   0  0  0  0  0  0  0  0  0  0  0  0
   10.1403   -1.3362    0.0000 H   0  0  0  0  0  0  0  0  0  0  0  0
    9.3957   -2.6489    0.0000 H   0  0  0  0  0  0  0  0  0  0  0  0
   10.1928   -2.6489    0.0000 H   0  0  0  0  0  0  0  0  0  0  0  0
   10.7000   -0.0628    0.0000 H   0  0  0  0  0  0  0  0  0  0  0  0
   10.1448   -0.6794    0.0000 H   0  0  0  0  0  0  0  0  0  0  0  0
    5.5841    0.4600    0.0000 H   0  0  0  0  0  0  0  0  0  0  0  0
    9.4651   -1.3639    0.0000 H   0  0  0  0  0  0  0  0  0  0  0  0
    8.0622    1.4461    0.0000 H   0  0  0  0  0  0  0  0  0  0  0  0
   12.3093   -0.2193    0.0000 H   0  0  0  0  0  0  0  0  0  0  0  0
   11.5513    0.1182    0.0000 H   0  0  0  0  0  0  0  0  0  0  0  0
    9.1403    0.7435    0.0000 H   0  0  0  0  0  0  0  0  0  0  0  0
    9.5388    1.4337    0.0000 H   0  0  0  0  0  0  0  0  0  0  0  0
    7.1962    1.9461    0.0000 H   0  0  0  0  0  0  0  0  0  0  0  0
   12.8595   -1.4023    0.0000 H   0  0  0  0  0  0  0  0  0  0  0  0
    9.4651   -0.3639    0.0000 H   0  0  0  0  0  0  0  0  0  0  0  0
    9.4651    2.0161    0.0000 H   0  0  0  0  0  0  0  0  0  0  0  0
    6.5010    1.8821    0.0000 H   0  0  0  0  0  0  0  0  0  0  0  0
    6.2741    2.7290    0.0000 H   0  0  0  0  0  0  0  0  0  0  0  0
    5.4272    2.5021    0.0000 H   0  0  0  0  0  0  0  0  0  0  0  0
    4.0611    1.5161    0.0000 H   0  0  0  0  0  0  0  0  0  0  0  0
    3.9641    1.0800    0.0000 H   0  0  0  0  0  0  0  0  0  0  0  0
    3.3441    0.4600    0.0000 H   0  0  0  0  0  0  0  0  0  0  0  0
    3.9641   -0.1600    0.0000 H   0  0  0  0  0  0  0  0  0  0  0  0
    4.9272   -0.7160    0.0000 H   0  0  0  0  0  0  0  0  0  0  0  0
    5.7741   -0.9429    0.0000 H   0  0  0  0  0  0  0  0  0  0  0  0
    6.0010   -0.0960    0.0000 H   0  0  0  0  0  0  0  0  0  0  0  0
    7.5252   -1.8639    0.0000 H   0  0  0  0  0  0  0  0  0  0  0  0
   10.1042    2.2891    0.0000 H   0  0  0  0  0  0  0  0  0  0  0  0
   10.3312    3.1361    0.0000 H   0  0  0  0  0  0  0  0  0  0  0  0
    9.4842    3.3630    0.0000 H   0  0  0  0  0  0  0  0  0  0  0  0
    8.3722    3.3630    0.0000 H   0  0  0  0  0  0  0  0  0  0  0  0
    7.5252    3.1361    0.0000 H   0  0  0  0  0  0  0  0  0  0  0  0
    7.7522    2.2891    0.0000 H   0  0  0  0  0  0  0  0  0  0  0  0
    4.2690    3.6361    0.0000 H   0  0  0  0  0  0  0  0  0  0  0  0
    8.5991   -3.4839    0.0000 H   0  0  0  0  0  0  0  0  0  0  0  0
    2.5560    3.3630    0.0000 H   0  0  0  0  0  0  0  0  0  0  0  0
    2.3291    2.5161    0.0000 H   0  0  0  0  0  0  0  0  0  0  0  0
    3.1760    2.2891    0.0000 H   0  0  0  0  0  0  0  0  0  0  0  0
    4.2690    4.6361    0.0000 H   0  0  0  0  0  0  0  0  0  0  0  0
    6.1181   -4.5913    0.0000 H   0  0  0  0  0  0  0  0  0  0  0  0
    5.7196   -5.2816    0.0000 H   0  0  0  0  0  0  0  0  0  0  0  0
    4.2647    6.2223    0.0000 H   0  0  0  0  0  0  0  0  0  0  0  0
    7.7331   -6.3639    0.0000 H   0  0  0  0  0  0  0  0  0  0  0  0
    4.9272   -6.3639    0.0000 H   0  0  0  0  0  0  0  0  0  0  0  0
    4.4554    7.8095    0.0000 H   0  0  0  0  0  0  0  0  0  0  0  0
    4.3182    8.6755    0.0000 H   0  0  0  0  0  0  0  0  0  0  0  0
    3.4522    8.5384    0.0000 H   0  0  0  0  0  0  0  0  0  0  0  0
    7.7331   -7.9839    0.0000 H   0  0  0  0  0  0  0  0  0  0  0  0
    4.9272   -7.9839    0.0000 H   0  0  0  0  0  0  0  0  0  0  0  0
    6.3301   -8.7939    0.0000 H   0  0  0  0  0  0  0  0  0  0  0  0
  1 23  2  0  0  0  0
  2 25  2  0  0  0  0
  3 28  2  0  0  0  0
  4 32  2  0  0  0  0
  5 38  1  0  0  0  0
  5 41  1  0  0  0  0
  6 38  2  0  0  0  0
  7 39  2  0  0  0  0
  8 14  1  0  0  0  0
  8 44  1  0  0  0  0
 21  9  1  1  0  0  0
  9 25  1  0  0  0  0
  9 63  1  0  0  0  0
 10 22  1  0  0  0  0
 10 23  1  0  0  0  0
 10 64  1  0  0  0  0
 20 11  1  1  0  0  0
 11 28  1  0  0  0  0
 11 65  1  0  0  0  0
 16 12  1  1  0  0  0
 12 32  1  0  0  0  0
 12 70  1  0  0  0  0
 35 13  1  6  0  0  0
 13 39  1  0  0  0  0
 13 89  1  0  0  0  0
 14 40  2  0  0  0  0
 15 17  1  6  0  0  0
 15 18  1  0  0  0  0
 15 23  1  0  0  0  0
 15 51  1  0  0  0  0
 16 19  1  0  0  0  0
 16 25  1  0  0  0  0
 16 27  1  0  0  0  0
 17 20  1  0  0  0  0
 17 52  1  0  0  0  0
 17 53  1  0  0  0  0
 18 22  1  0  0  0  0
 18 54  1  0  0  0  0
 18 55  1  0  0  0  0
 19 29  1  0  0  0  0
 19 30  1  0  0  0  0
 19 56  1  0  0  0  0
 20 31  1  0  0  0  0
 20 57  1  0  0  0  0
 21 24  1  0  0  0  0
 21 28  1  0  0  0  0
 21 58  1  0  0  0  0
 22 59  1  0  0  0  0
 22 60  1  0  0  0  0
 24 26  1  0  0  0  0
 24 61  1  0  0  0  0
 24 62  1  0  0  0  0
 26 33  1  0  0  0  0
 26 34  1  0  0  0  0
 26 66  1  0  0  0  0
 27 67  1  0  0  0  0
 27 68  1  0  0  0  0
 27 69  1  0  0  0  0
 29 71  1  0  0  0  0
 29 72  1  0  0  0  0
 29 73  1  0  0  0  0
 30 74  1  0  0  0  0
 30 75  1  0  0  0  0
 30 76  1  0  0  0  0
 31 36  2  0  0  0  0
 31 77  1  0  0  0  0
 32 35  1  0  0  0  0
 33 78  1  0  0  0  0
 33 79  1  0  0  0  0
 33 80  1  0  0  0  0
 34 81  1  0  0  0  0
 34 82  1  0  0  0  0
 34 83  1  0  0  0  0
 35 37  1  0  0  0  0
 35 84  1  0  0  0  0
 36 38  1  0  0  0  0
 36 85  1  0  0  0  0
 37 86  1  0  0  0  0
 37 87  1  0  0  0  0
 37 88  1  0  0  0  0
 39 40  1  0  0  0  0
 40 42  1  0  0  0  0
 41 43  1  0  0  0  0
 41 90  1  0  0  0  0
 41 91  1  0  0  0  0
 42 44  2  0  0  0  0
 42 92  1  0  0  0  0
 43 45  2  0  0  0  0
 43 46  1  0  0  0  0
 44 47  1  0  0  0  0
 45 48  1  0  0  0  0
 45 93  1  0  0  0  0
 46 49  2  0  0  0  0
 46 94  1  0  0  0  0
 47 95  1  0  0  0  0
 47 96  1  0  0  0  0
 47 97  1  0  0  0  0
 48 50  2  0  0  0  0
 48 98  1  0  0  0  0
 49 50  1  0  0  0  0
 49 99  1  0  0  0  0
 50100  1  0  0  0  0
M  END
> <PUBCHEM_COMPOUND_CID>
143215513

> <PUBCHEM_COMPOUND_CANONICALIZED>
1

> <PUBCHEM_CACTVS_COMPLEXITY>
1230

> <PUBCHEM_CACTVS_HBOND_ACCEPTOR>
9

> <PUBCHEM_CACTVS_HBOND_DONOR>
5

> <PUBCHEM_CACTVS_ROTATABLE_BOND>
18

> <PUBCHEM_CACTVS_SUBSKEYS>
AAADcfB/vAAAAAAAAAAAAAAAAAAAAWLAAAAwAAAAAAAAAAABwAAAHgAUAAAADazhngYyjJLQBACpA6XyWgCCAAAmIgAomKG+bNoIZjqAtbuWMYhm1hmI6ce/wCAOgAAAAAAAAAAAAAAAAAAAAAAAAAAAAA==

> <PUBCHEM_IUPAC_OPENEYE_NAME>
benzyl (E,4S)-4-[[(2S)-2-[[(2R)-2,3-dimethyl-2-[[(2S)-2-[(5-methylisoxazole-3-carbonyl)amino]propanoyl]amino]butanoyl]amino]-4-methyl-pentanoyl]amino]-5-[(3S)-2-oxopyrrolidin-3-yl]pent-2-enoate

> <PUBCHEM_IUPAC_CAS_NAME>
(E,4S)-4-[[(2S)-2-[[(2R)-2,3-dimethyl-2-[[(2S)-2-[[(5-methyl-3-isoxazolyl)-oxomethyl]amino]-1-oxopropyl]amino]-1-oxobutyl]amino]-4-methyl-1-oxopentyl]amino]-5-[(3S)-2-oxo-3-pyrrolidinyl]-2-pentenoic acid (phenylmethyl) ester

> <PUBCHEM_IUPAC_NAME_MARKUP>
benzyl (<I>E</I>,4<I>S</I>)-4-[[(2<I>S</I>)-2-[[(2<I>R</I>)-2,3-dimethyl-2-[[(2<I>S</I>)-2-[(5-methyl-1,2-oxazole-3-carbonyl)amino]propanoyl]amino]butanoyl]amino]-4-methylpentanoyl]amino]-5-[(3<I>S</I>)-2-oxopyrrolidin-3-yl]pent-2-enoate

> <PUBCHEM_IUPAC_NAME>
benzyl (E,4S)-4-[[(2S)-2-[[(2R)-2,3-dimethyl-2-[[(2S)-2-[(5-methyl-1,2-oxazole-3-carbonyl)amino]propanoyl]amino]butanoyl]amino]-4-methylpentanoyl]amino]-5-[(3S)-2-oxopyrrolidin-3-yl]pent-2-enoate

> <PUBCHEM_IUPAC_SYSTEMATIC_NAME>
(phenylmethyl) (E,4S)-4-[[(2S)-2-[[(2R)-2,3-dimethyl-2-[[(2S)-2-[(5-methyl-1,2-oxazol-3-yl)carbonylamino]propanoyl]amino]butanoyl]amino]-4-methyl-pentanoyl]amino]-5-[(3S)-2-oxidanylidenepyrrolidin-3-yl]pent-2-enoate

> <PUBCHEM_IUPAC_TRADITIONAL_NAME>
(E,4S)-4-[[(2S)-2-[[(2R)-2,3-dimethyl-2-[[(2S)-2-[(5-methylisoxazole-3-carbonyl)amino]propanoyl]amino]butanoyl]amino]-4-methyl-pentanoyl]amino]-5-[(3S)-2-ketopyrrolidin-3-yl]pent-2-enoic acid benzyl ester

> <PUBCHEM_IUPAC_INCHI>
InChI=1S/C36H50N6O8/c1-21(2)17-28(40-35(48)36(7,22(3)4)41-31(44)24(6)38-34(47)29-18-23(5)50-42-29)33(46)39-27(19-26-15-16-37-32(26)45)13-14-30(43)49-20-25-11-9-8-10-12-25/h8-14,18,21-22,24,26-28H,15-17,19-20H2,1-7H3,(H,37,45)(H,38,47)(H,39,46)(H,40,48)(H,41,44)/b14-13+/t24-,26-,27+,28-,36+/m0/s1

> <PUBCHEM_IUPAC_INCHIKEY>
WIMJGJGBYQOKGM-LZANOUKQSA-N

> <PUBCHEM_XLOGP3_AA>
3.5

> <PUBCHEM_EXACT_MASS>
694.369013

> <PUBCHEM_MOLECULAR_FORMULA>
C36H50N6O8

> <PUBCHEM_MOLECULAR_WEIGHT>
694.8

> <PUBCHEM_OPENEYE_CAN_SMILES>
CC1=CC(=NO1)C(=O)NC(C)C(=O)NC(C)(C(C)C)C(=O)NC(CC(C)C)C(=O)NC(CC2CCNC2=O)C=CC(=O)OCC3=CC=CC=C3

> <PUBCHEM_OPENEYE_ISO_SMILES>
CC1=CC(=NO1)C(=O)N[C@@H](C)C(=O)N[C@](C)(C(C)C)C(=O)N[C@@H](CC(C)C)C(=O)N[C@@H](C[C@@H]2CCNC2=O)/C=C/C(=O)OCC3=CC=CC=C3

> <PUBCHEM_CACTVS_TPSA>
198

> <PUBCHEM_MONOISOTOPIC_WEIGHT>
694.369013

> <PUBCHEM_TOTAL_CHARGE>
0

> <PUBCHEM_HEAVY_ATOM_COUNT>
50

> <PUBCHEM_ATOM_DEF_STEREO_COUNT>
5

> <PUBCHEM_ATOM_UDEF_STEREO_COUNT>
0

> <PUBCHEM_BOND_DEF_STEREO_COUNT>
1

> <PUBCHEM_BOND_UDEF_STEREO_COUNT>
0

> <PUBCHEM_ISOTOPIC_ATOM_COUNT>
0

> <PUBCHEM_COMPONENT_COUNT>
1

> <PUBCHEM_CACTVS_TAUTO_COUNT>
-1

> <PUBCHEM_COORDINATE_TYPE>
1
5
255

> <PUBCHEM_BONDANNOTATIONS>
20  11  5
16  12  5
35  13  6
14  40  8
15  17  6
40  42  8
42  44  8
43  45  8
43  46  8
45  48  8
46  49  8
48  50  8
49  50  8
8  14  8
8  44  8
21  9  5

$$$$
143215522
  -OEChem-02212016592D

 97 99  0     1  0  0  0  0  0999 V2000
   15.0964   -0.6929    0.0000 O   0  0  0  0  0  0  0  0  0  0  0  0
   10.5109    1.6920    0.0000 O   0  0  0  0  0  0  0  0  0  0  0  0
    9.6448    2.1920    0.0000 O   0  0  0  0  0  0  0  0  0  0  0  0
   10.5109   -2.3080    0.0000 O   0  0  0  0  0  0  0  0  0  0  0  0
    7.0468    4.6920    0.0000 O   0  0  0  0  0  0  0  0  0  0  0  0
    9.6448   -0.8080    0.0000 O   0  0  0  0  0  0  0  0  0  0  0  0
    4.4487    2.1920    0.0000 O   0  0  0  0  0  0  0  0  0  0  0  0
    2.0000    4.0284    0.0000 O   0  0  0  0  0  0  0  0  0  0  0  0
   15.5577    1.0284    0.0000 N   0  0  0  0  0  0  0  0  0  0  0  0
   12.2429    1.6920    0.0000 N   0  0  0  0  0  0  0  0  0  0  0  0
   10.5109    3.6920    0.0000 N   0  0  0  0  0  0  0  0  0  0  0  0
    7.9128    3.1920    0.0000 N   0  0  0  0  0  0  0  0  0  0  0  0
    5.3147    3.6920    0.0000 N   0  0  0  0  0  0  0  0  0  0  0  0
    2.6691    3.2853    0.0000 N   0  0  0  0  0  0  0  0  0  0  0  0
   13.9750    0.6920    0.0000 C   0  0  2  0  0  0  0  0  0  0  0  0
   13.1090    0.1920    0.0000 C   0  0  0  0  0  0  0  0  0  0  0  0
   14.0795    1.6865    0.0000 C   0  0  0  0  0  0  0  0  0  0  0  0
   12.2429    0.6920    0.0000 C   0  0  1  0  0  0  0  0  0  0  0  0
   15.0577    1.8944    0.0000 C   0  0  0  0  0  0  0  0  0  0  0  0
   14.8885    0.2853    0.0000 C   0  0  0  0  0  0  0  0  0  0  0  0
   11.3769    3.1920    0.0000 C   0  0  3  0  0  0  0  0  0  0  0  0
   12.2429    3.6920    0.0000 C   0  0  0  0  0  0  0  0  0  0  0  0
   11.3769    2.1920    0.0000 C   0  0  0  0  0  0  0  0  0  0  0  0
   12.2429    4.6920    0.0000 C   0  0  0  0  0  0  0  0  0  0  0  0
   11.3769    0.1920    0.0000 C   0  0  0  0  0  0  0  0  0  0  0  0
    8.7788    3.6920    0.0000 C   0  0  1  0  0  0  0  0  0  0  0  0
    8.7788    4.6920    0.0000 C   0  0  0  0  0  0  0  0  0  0  0  0
    9.6448    3.1920    0.0000 C   0  0  0  0  0  0  0  0  0  0  0  0
   13.1090    5.1920    0.0000 C   0  0  0  0  0  0  0  0  0  0  0  0
   11.3769    5.1920    0.0000 C   0  0  0  0  0  0  0  0  0  0  0  0
   11.3769   -0.8080    0.0000 C   0  0  0  0  0  0  0  0  0  0  0  0
    7.9128    5.1920    0.0000 C   0  0  0  0  0  0  0  0  0  0  0  0
    9.6448    5.1920    0.0000 C   0  0  0  0  0  0  0  0  0  0  0  0
    7.0468    3.6920    0.0000 C   0  0  0  0  0  0  0  0  0  0  0  0
    6.1808    3.1920    0.0000 C   0  0  2  0  0  0  0  0  0  0  0  0
   10.5109   -1.3080    0.0000 C   0  0  0  0  0  0  0  0  0  0  0  0
    6.1808    2.1920    0.0000 C   0  0  0  0  0  0  0  0  0  0  0  0
    4.4487    3.1920    0.0000 C   0  0  0  0  0  0  0  0  0  0  0  0
    9.6448   -2.8080    0.0000 C   0  0  0  0  0  0  0  0  0  0  0  0
    3.5827    3.6920    0.0000 C   0  0  0  0  0  0  0  0  0  0  0  0
    9.6448   -3.8080    0.0000 C   0  0  0  0  0  0  0  0  0  0  0  0
    3.4782    4.6865    0.0000 C   0  0  0  0  0  0  0  0  0  0  0  0
   10.5109   -4.3080    0.0000 C   0  0  0  0  0  0  0  0  0  0  0  0
    8.7788   -4.3080    0.0000 C   0  0  0  0  0  0  0  0  0  0  0  0
    2.5000    4.8944    0.0000 C   0  0  0  0  0  0  0  0  0  0  0  0
   10.5109   -5.3080    0.0000 C   0  0  0  0  0  0  0  0  0  0  0  0
    8.7788   -5.3080    0.0000 C   0  0  0  0  0  0  0  0  0  0  0  0
    9.6448   -5.8080    0.0000 C   0  0  0  0  0  0  0  0  0  0  0  0
    2.0933    5.8080    0.0000 C   0  0  0  0  0  0  0  0  0  0  0  0
   14.0074    0.0729    0.0000 H   0  0  0  0  0  0  0  0  0  0  0  0
   12.7104   -0.2829    0.0000 H   0  0  0  0  0  0  0  0  0  0  0  0
   13.5075   -0.2829    0.0000 H   0  0  0  0  0  0  0  0  0  0  0  0
   14.0147    2.3031    0.0000 H   0  0  0  0  0  0  0  0  0  0  0  0
   13.4595    1.6865    0.0000 H   0  0  0  0  0  0  0  0  0  0  0  0
   12.7799    1.0020    0.0000 H   0  0  0  0  0  0  0  0  0  0  0  0
   15.6241    2.1466    0.0000 H   0  0  0  0  0  0  0  0  0  0  0  0
   14.8661    2.4841    0.0000 H   0  0  0  0  0  0  0  0  0  0  0  0
   16.1743    0.9636    0.0000 H   0  0  0  0  0  0  0  0  0  0  0  0
   10.8400    2.8820    0.0000 H   0  0  0  0  0  0  0  0  0  0  0  0
   12.4550    3.1094    0.0000 H   0  0  0  0  0  0  0  0  0  0  0  0
   12.8535    3.7997    0.0000 H   0  0  0  0  0  0  0  0  0  0  0  0
   12.7799    2.0020    0.0000 H   0  0  0  0  0  0  0  0  0  0  0  0
   12.7799    4.3820    0.0000 H   0  0  0  0  0  0  0  0  0  0  0  0
   10.8400    0.5020    0.0000 H   0  0  0  0  0  0  0  0  0  0  0  0
    8.2419    4.0020    0.0000 H   0  0  0  0  0  0  0  0  0  0  0  0
   10.5109    4.3120    0.0000 H   0  0  0  0  0  0  0  0  0  0  0  0
    9.3158    4.3820    0.0000 H   0  0  0  0  0  0  0  0  0  0  0  0
   13.4190    4.6551    0.0000 H   0  0  0  0  0  0  0  0  0  0  0  0
   13.6459    5.5020    0.0000 H   0  0  0  0  0  0  0  0  0  0  0  0
   12.7990    5.7290    0.0000 H   0  0  0  0  0  0  0  0  0  0  0  0
   11.6869    5.7290    0.0000 H   0  0  0  0  0  0  0  0  0  0  0  0
   10.8400    5.5020    0.0000 H   0  0  0  0  0  0  0  0  0  0  0  0
   11.0669    4.6551    0.0000 H   0  0  0  0  0  0  0  0  0  0  0  0
    7.9128    2.5720    0.0000 H   0  0  0  0  0  0  0  0  0  0  0  0
   11.9138   -1.1180    0.0000 H   0  0  0  0  0  0  0  0  0  0  0  0
    8.2228    5.7290    0.0000 H   0  0  0  0  0  0  0  0  0  0  0  0
    7.3759    5.5020    0.0000 H   0  0  0  0  0  0  0  0  0  0  0  0
    7.6028    4.6551    0.0000 H   0  0  0  0  0  0  0  0  0  0  0  0
    9.9548    4.6551    0.0000 H   0  0  0  0  0  0  0  0  0  0  0  0
   10.1818    5.5020    0.0000 H   0  0  0  0  0  0  0  0  0  0  0  0
    9.3348    5.7290    0.0000 H   0  0  0  0  0  0  0  0  0  0  0  0
    6.1808    3.8120    0.0000 H   0  0  0  0  0  0  0  0  0  0  0  0
    5.5608    2.1920    0.0000 H   0  0  0  0  0  0  0  0  0  0  0  0
    6.1808    1.5720    0.0000 H   0  0  0  0  0  0  0  0  0  0  0  0
    6.8008    2.1920    0.0000 H   0  0  0  0  0  0  0  0  0  0  0  0
    5.3147    4.3120    0.0000 H   0  0  0  0  0  0  0  0  0  0  0  0
    9.4328   -2.2254    0.0000 H   0  0  0  0  0  0  0  0  0  0  0  0
    9.0343   -2.9156    0.0000 H   0  0  0  0  0  0  0  0  0  0  0  0
    3.9389    5.1014    0.0000 H   0  0  0  0  0  0  0  0  0  0  0  0
   11.0478   -3.9980    0.0000 H   0  0  0  0  0  0  0  0  0  0  0  0
    8.2419   -3.9980    0.0000 H   0  0  0  0  0  0  0  0  0  0  0  0
   11.0478   -5.6180    0.0000 H   0  0  0  0  0  0  0  0  0  0  0  0
    8.2419   -5.6180    0.0000 H   0  0  0  0  0  0  0  0  0  0  0  0
    9.6448   -6.4280    0.0000 H   0  0  0  0  0  0  0  0  0  0  0  0
    2.6597    6.0602    0.0000 H   0  0  0  0  0  0  0  0  0  0  0  0
    1.8411    6.3744    0.0000 H   0  0  0  0  0  0  0  0  0  0  0  0
    1.5269    5.5558    0.0000 H   0  0  0  0  0  0  0  0  0  0  0  0
  1 20  2  0  0  0  0
  2 23  2  0  0  0  0
  3 28  2  0  0  0  0
  4 36  1  0  0  0  0
  4 39  1  0  0  0  0
  5 34  2  0  0  0  0
  6 36  2  0  0  0  0
  7 38  2  0  0  0  0
  8 14  1  0  0  0  0
  8 45  1  0  0  0  0
  9 19  1  0  0  0  0
  9 20  1  0  0  0  0
  9 58  1  0  0  0  0
 18 10  1  1  0  0  0
 10 23  1  0  0  0  0
 10 62  1  0  0  0  0
 11 21  1  0  0  0  0
 11 28  1  0  0  0  0
 11 66  1  0  0  0  0
 26 12  1  1  0  0  0
 12 34  1  0  0  0  0
 12 74  1  0  0  0  0
 35 13  1  6  0  0  0
 13 38  1  0  0  0  0
 13 86  1  0  0  0  0
 14 40  2  0  0  0  0
 15 16  1  6  0  0  0
 15 17  1  0  0  0  0
 15 20  1  0  0  0  0
 15 50  1  0  0  0  0
 16 18  1  0  0  0  0
 16 51  1  0  0  0  0
 16 52  1  0  0  0  0
 17 19  1  0  0  0  0
 17 53  1  0  0  0  0
 17 54  1  0  0  0  0
 18 25  1  0  0  0  0
 18 55  1  0  0  0  0
 19 56  1  0  0  0  0
 19 57  1  0  0  0  0
 21 22  1  0  0  0  0
 21 23  1  0  0  0  0
 21 59  1  0  0  0  0
 22 24  1  0  0  0  0
 22 60  1  0  0  0  0
 22 61  1  0  0  0  0
 24 29  1  0  0  0  0
 24 30  1  0  0  0  0
 24 63  1  0  0  0  0
 25 31  2  0  0  0  0
 25 64  1  0  0  0  0
 26 27  1  0  0  0  0
 26 28  1  0  0  0  0
 26 65  1  0  0  0  0
 27 32  1  0  0  0  0
 27 33  1  0  0  0  0
 27 67  1  0  0  0  0
 29 68  1  0  0  0  0
 29 69  1  0  0  0  0
 29 70  1  0  0  0  0
 30 71  1  0  0  0  0
 30 72  1  0  0  0  0
 30 73  1  0  0  0  0
 31 36  1  0  0  0  0
 31 75  1  0  0  0  0
 32 76  1  0  0  0  0
 32 77  1  0  0  0  0
 32 78  1  0  0  0  0
 33 79  1  0  0  0  0
 33 80  1  0  0  0  0
 33 81  1  0  0  0  0
 34 35  1  0  0  0  0
 35 37  1  0  0  0  0
 35 82  1  0  0  0  0
 37 83  1  0  0  0  0
 37 84  1  0  0  0  0
 37 85  1  0  0  0  0
 38 40  1  0  0  0  0
 39 41  1  0  0  0  0
 39 87  1  0  0  0  0
 39 88  1  0  0  0  0
 40 42  1  0  0  0  0
 41 43  2  0  0  0  0
 41 44  1  0  0  0  0
 42 45  2  0  0  0  0
 42 89  1  0  0  0  0
 43 46  1  0  0  0  0
 43 90  1  0  0  0  0
 44 47  2  0  0  0  0
 44 91  1  0  0  0  0
 45 49  1  0  0  0  0
 46 48  2  0  0  0  0
 46 92  1  0  0  0  0
 47 48  1  0  0  0  0
 47 93  1  0  0  0  0
 48 94  1  0  0  0  0
 49 95  1  0  0  0  0
 49 96  1  0  0  0  0
 49 97  1  0  0  0  0
M  END
> <PUBCHEM_COMPOUND_CID>
143215522

> <PUBCHEM_COMPOUND_CANONICALIZED>
1

> <PUBCHEM_CACTVS_COMPLEXITY>
1190

> <PUBCHEM_CACTVS_HBOND_ACCEPTOR>
9

> <PUBCHEM_CACTVS_HBOND_DONOR>
5

> <PUBCHEM_CACTVS_ROTATABLE_BOND>
18

> <PUBCHEM_CACTVS_SUBSKEYS>
AAADcfB/vAAAAAAAAAAAAAAAAAAAAWLAAAAwAAAAAAAAAAABwAAAHgAUAAAADSzhngYyjJLQBACpA6XyWgCCAAAmIgAomKG+bNoIZjqAtbuWMYhm1hmI6ce/wCAOAAAAAAAAAAAAAAAAAAAAAAAAAAAAAA==

> <PUBCHEM_IUPAC_OPENEYE_NAME>
benzyl (E,4S)-4-[[4-methyl-2-[[(2S)-3-methyl-2-[[(2S)-2-[(5-methylisoxazole-3-carbonyl)amino]propanoyl]amino]butanoyl]amino]pentanoyl]amino]-5-[(3S)-2-oxopyrrolidin-3-yl]pent-2-enoate

> <PUBCHEM_IUPAC_CAS_NAME>
(E,4S)-4-[[4-methyl-2-[[(2S)-3-methyl-2-[[(2S)-2-[[(5-methyl-3-isoxazolyl)-oxomethyl]amino]-1-oxopropyl]amino]-1-oxobutyl]amino]-1-oxopentyl]amino]-5-[(3S)-2-oxo-3-pyrrolidinyl]-2-pentenoic acid (phenylmethyl) ester

> <PUBCHEM_IUPAC_NAME_MARKUP>
benzyl (<I>E</I>,4<I>S</I>)-4-[[4-methyl-2-[[(2<I>S</I>)-3-methyl-2-[[(2<I>S</I>)-2-[(5-methyl-1,2-oxazole-3-carbonyl)amino]propanoyl]amino]butanoyl]amino]pentanoyl]amino]-5-[(3<I>S</I>)-2-oxopyrrolidin-3-yl]pent-2-enoate

> <PUBCHEM_IUPAC_NAME>
benzyl (E,4S)-4-[[4-methyl-2-[[(2S)-3-methyl-2-[[(2S)-2-[(5-methyl-1,2-oxazole-3-carbonyl)amino]propanoyl]amino]butanoyl]amino]pentanoyl]amino]-5-[(3S)-2-oxopyrrolidin-3-yl]pent-2-enoate

> <PUBCHEM_IUPAC_SYSTEMATIC_NAME>
(phenylmethyl) (E,4S)-4-[[4-methyl-2-[[(2S)-3-methyl-2-[[(2S)-2-[(5-methyl-1,2-oxazol-3-yl)carbonylamino]propanoyl]amino]butanoyl]amino]pentanoyl]amino]-5-[(3S)-2-oxidanylidenepyrrolidin-3-yl]pent-2-enoate

> <PUBCHEM_IUPAC_TRADITIONAL_NAME>
(E,4S)-5-[(3S)-2-ketopyrrolidin-3-yl]-4-[[4-methyl-2-[[(2S)-3-methyl-2-[[(2S)-2-[(5-methylisoxazole-3-carbonyl)amino]propanoyl]amino]butanoyl]amino]pentanoyl]amino]pent-2-enoic acid benzyl ester

> <PUBCHEM_IUPAC_INCHI>
InChI=1S/C35H48N6O8/c1-20(2)16-27(39-35(47)30(21(3)4)40-31(43)23(6)37-34(46)28-17-22(5)49-41-28)33(45)38-26(18-25-14-15-36-32(25)44)12-13-29(42)48-19-24-10-8-7-9-11-24/h7-13,17,20-21,23,25-27,30H,14-16,18-19H2,1-6H3,(H,36,44)(H,37,46)(H,38,45)(H,39,47)(H,40,43)/b13-12+/t23-,25-,26+,27?,30-/m0/s1

> <PUBCHEM_IUPAC_INCHIKEY>
IDBWWEGDLCFCTD-LHDHWOGPSA-N

> <PUBCHEM_XLOGP3_AA>
3.4

> <PUBCHEM_EXACT_MASS>
680.353363

> <PUBCHEM_MOLECULAR_FORMULA>
C35H48N6O8

> <PUBCHEM_MOLECULAR_WEIGHT>
680.8

> <PUBCHEM_OPENEYE_CAN_SMILES>
CC1=CC(=NO1)C(=O)NC(C)C(=O)NC(C(C)C)C(=O)NC(CC(C)C)C(=O)NC(CC2CCNC2=O)C=CC(=O)OCC3=CC=CC=C3

> <PUBCHEM_OPENEYE_ISO_SMILES>
CC1=CC(=NO1)C(=O)N[C@@H](C)C(=O)N[C@@H](C(C)C)C(=O)NC(CC(C)C)C(=O)N[C@@H](C[C@@H]2CCNC2=O)/C=C/C(=O)OCC3=CC=CC=C3

> <PUBCHEM_CACTVS_TPSA>
198

> <PUBCHEM_MONOISOTOPIC_WEIGHT>
680.353363

> <PUBCHEM_TOTAL_CHARGE>
0

> <PUBCHEM_HEAVY_ATOM_COUNT>
49

> <PUBCHEM_ATOM_DEF_STEREO_COUNT>
4

> <PUBCHEM_ATOM_UDEF_STEREO_COUNT>
1

> <PUBCHEM_BOND_DEF_STEREO_COUNT>
1

> <PUBCHEM_BOND_UDEF_STEREO_COUNT>
0

> <PUBCHEM_ISOTOPIC_ATOM_COUNT>
0

> <PUBCHEM_COMPONENT_COUNT>
1

> <PUBCHEM_CACTVS_TAUTO_COUNT>
-1

> <PUBCHEM_COORDINATE_TYPE>
1
5
255

> <PUBCHEM_BONDANNOTATIONS>
18  10  5
26  12  5
35  13  6
14  40  8
15  16  6
21  22  3
40  42  8
41  43  8
41  44  8
42  45  8
43  46  8
44  47  8
46  48  8
47  48  8
8  14  8
8  45  8

$$$$
143215525
  -OEChem-02212016592D

 80 81  0     1  0  0  0  0  0999 V2000
   10.3606    0.8988    0.0000 O   0  0  0  0  0  0  0  0  0  0  0  0
    8.4681    5.7085    0.0000 O   0  0  0  0  0  0  0  0  0  0  0  0
    4.8968    5.2131    0.0000 O   0  0  0  0  0  0  0  0  0  0  0  0
   12.4462    5.2904    0.0000 O   0  0  0  0  0  0  0  0  0  0  0  0
   11.0450    6.3084    0.0000 O   0  0  0  0  0  0  0  0  0  0  0  0
    4.2644    8.7627    0.0000 O   0  0  0  0  0  0  0  0  0  0  0  0
    1.0994    7.7218    0.0000 O   0  0  0  0  0  0  0  0  0  0  0  0
    8.6006    0.6200    0.0000 N   0  0  0  0  0  0  0  0  0  0  0  0
    8.2871    3.9859    0.0000 N   0  0  0  0  0  0  0  0  0  0  0  0
    6.4791    5.9176    0.0000 N   0  0  0  0  0  0  0  0  0  0  0  0
    4.0833    7.0402    0.0000 N   0  0  0  0  0  0  0  0  0  0  0  0
    2.0129    7.3151    0.0000 N   0  0  0  0  0  0  0  0  0  0  0  0
    9.1006    2.1588    0.0000 C   0  0  3  0  0  0  0  0  0  0  0  0
    8.1006    2.1588    0.0000 C   0  0  0  0  0  0  0  0  0  0  0  0
    9.6883    2.9679    0.0000 C   0  0  0  0  0  0  0  0  0  0  0  0
    7.7915    1.2078    0.0000 C   0  0  0  0  0  0  0  0  0  0  0  0
    9.2816    3.8814    0.0000 C   0  0  3  0  0  0  0  0  0  0  0  0
    9.4096    1.2078    0.0000 C   0  0  0  0  0  0  0  0  0  0  0  0
    9.8694    4.6904    0.0000 C   0  0  0  0  0  0  0  0  0  0  0  0
    7.8803    4.8995    0.0000 C   0  0  0  0  0  0  0  0  0  0  0  0
    5.0778    6.9356    0.0000 C   0  0  3  0  0  0  0  0  0  0  0  0
    5.6656    7.7446    0.0000 C   0  0  0  0  0  0  0  0  0  0  0  0
    6.8858    5.0040    0.0000 C   0  0  0  0  0  0  0  0  0  0  0  0
   10.8639    4.5859    0.0000 C   0  0  0  0  0  0  0  0  0  0  0  0
    5.4846    6.0221    0.0000 C   0  0  0  0  0  0  0  0  0  0  0  0
    5.2589    8.6582    0.0000 C   0  0  0  0  0  0  0  0  0  0  0  0
    6.6601    7.6401    0.0000 C   0  0  0  0  0  0  0  0  0  0  0  0
   11.4517    5.3949    0.0000 C   0  0  0  0  0  0  0  0  0  0  0  0
    3.6766    7.9537    0.0000 C   0  0  0  0  0  0  0  0  0  0  0  0
    2.6820    8.0582    0.0000 C   0  0  0  0  0  0  0  0  0  0  0  0
   13.0340    6.0994    0.0000 C   0  0  0  0  0  0  0  0  0  0  0  0
    2.1820    8.9242    0.0000 C   0  0  0  0  0  0  0  0  0  0  0  0
    1.2039    8.7163    0.0000 C   0  0  0  0  0  0  0  0  0  0  0  0
   14.0285    5.9949    0.0000 C   0  0  0  0  0  0  0  0  0  0  0  0
    0.4608    9.3855    0.0000 C   0  0  0  0  0  0  0  0  0  0  0  0
    7.3226   14.4662    0.0000 C   0  0  0  0  0  0  0  0  0  0  0  0
    8.1886   13.9662    0.0000 C   0  0  0  0  0  0  0  0  0  0  0  0
    6.4565   13.9662    0.0000 C   0  0  0  0  0  0  0  0  0  0  0  0
    8.1886   12.9662    0.0000 C   0  0  0  0  0  0  0  0  0  0  0  0
    6.4565   12.9662    0.0000 C   0  0  0  0  0  0  0  0  0  0  0  0
    7.3226   12.4662    0.0000 C   0  0  0  0  0  0  0  0  0  0  0  0
    9.7129    2.0619    0.0000 H   0  0  0  0  0  0  0  0  0  0  0  0
    8.1654    2.7755    0.0000 H   0  0  0  0  0  0  0  0  0  0  0  0
    7.4941    2.2878    0.0000 H   0  0  0  0  0  0  0  0  0  0  0  0
   10.1190    2.5219    0.0000 H   0  0  0  0  0  0  0  0  0  0  0  0
   10.2023    3.3146    0.0000 H   0  0  0  0  0  0  0  0  0  0  0  0
    7.2251    1.4600    0.0000 H   0  0  0  0  0  0  0  0  0  0  0  0
    7.4815    0.6708    0.0000 H   0  0  0  0  0  0  0  0  0  0  0  0
    9.0294    4.4478    0.0000 H   0  0  0  0  0  0  0  0  0  0  0  0
    8.6006    0.0000    0.0000 H   0  0  0  0  0  0  0  0  0  0  0  0
    7.9226    3.4843    0.0000 H   0  0  0  0  0  0  0  0  0  0  0  0
    9.6172    5.2568    0.0000 H   0  0  0  0  0  0  0  0  0  0  0  0
    4.8257    7.5020    0.0000 H   0  0  0  0  0  0  0  0  0  0  0  0
    6.0300    8.2462    0.0000 H   0  0  0  0  0  0  0  0  0  0  0  0
    6.2842    4.8540    0.0000 H   0  0  0  0  0  0  0  0  0  0  0  0
    6.9291    4.3855    0.0000 H   0  0  0  0  0  0  0  0  0  0  0  0
   11.1161    4.0195    0.0000 H   0  0  0  0  0  0  0  0  0  0  0  0
    6.8435    6.4191    0.0000 H   0  0  0  0  0  0  0  0  0  0  0  0
    5.8253    8.9104    0.0000 H   0  0  0  0  0  0  0  0  0  0  0  0
    5.0067    9.2246    0.0000 H   0  0  0  0  0  0  0  0  0  0  0  0
    4.6925    8.4060    0.0000 H   0  0  0  0  0  0  0  0  0  0  0  0
    6.5953    7.0235    0.0000 H   0  0  0  0  0  0  0  0  0  0  0  0
    7.2767    7.5753    0.0000 H   0  0  0  0  0  0  0  0  0  0  0  0
    6.7249    8.2567    0.0000 H   0  0  0  0  0  0  0  0  0  0  0  0
    3.7189    6.5386    0.0000 H   0  0  0  0  0  0  0  0  0  0  0  0
    2.4342    9.4906    0.0000 H   0  0  0  0  0  0  0  0  0  0  0  0
   13.2049    6.6954    0.0000 H   0  0  0  0  0  0  0  0  0  0  0  0
   12.4767    6.3712    0.0000 H   0  0  0  0  0  0  0  0  0  0  0  0
   13.9637    5.3783    0.0000 H   0  0  0  0  0  0  0  0  0  0  0  0
   14.6451    5.9301    0.0000 H   0  0  0  0  0  0  0  0  0  0  0  0
   14.0933    6.6115    0.0000 H   0  0  0  0  0  0  0  0  0  0  0  0
    0.8756    9.8462    0.0000 H   0  0  0  0  0  0  0  0  0  0  0  0
    0.0000    9.8003    0.0000 H   0  0  0  0  0  0  0  0  0  0  0  0
    0.0459    8.9247    0.0000 H   0  0  0  0  0  0  0  0  0  0  0  0
    7.3226   15.0862    0.0000 H   0  0  0  0  0  0  0  0  0  0  0  0
    8.7255   14.2762    0.0000 H   0  0  0  0  0  0  0  0  0  0  0  0
    5.9196   14.2762    0.0000 H   0  0  0  0  0  0  0  0  0  0  0  0
    8.7255   12.6562    0.0000 H   0  0  0  0  0  0  0  0  0  0  0  0
    5.9196   12.6562    0.0000 H   0  0  0  0  0  0  0  0  0  0  0  0
    7.3226   11.8462    0.0000 H   0  0  0  0  0  0  0  0  0  0  0  0
  1 18  2  0  0  0  0
  2 20  2  0  0  0  0
  3 25  2  0  0  0  0
  4 28  1  0  0  0  0
  4 31  1  0  0  0  0
  5 28  2  0  0  0  0
  6 29  2  0  0  0  0
  7 12  1  0  0  0  0
  7 33  1  0  0  0  0
  8 16  1  0  0  0  0
  8 18  1  0  0  0  0
  8 50  1  0  0  0  0
  9 17  1  0  0  0  0
  9 20  1  0  0  0  0
  9 51  1  0  0  0  0
 10 23  1  0  0  0  0
 10 25  1  0  0  0  0
 10 58  1  0  0  0  0
 11 21  1  0  0  0  0
 11 29  1  0  0  0  0
 11 65  1  0  0  0  0
 12 30  2  0  0  0  0
 13 14  1  0  0  0  0
 13 15  1  0  0  0  0
 13 18  1  0  0  0  0
 13 42  1  0  0  0  0
 14 16  1  0  0  0  0
 14 43  1  0  0  0  0
 14 44  1  0  0  0  0
 15 17  1  0  0  0  0
 15 45  1  0  0  0  0
 15 46  1  0  0  0  0
 16 47  1  0  0  0  0
 16 48  1  0  0  0  0
 17 19  1  0  0  0  0
 17 49  1  0  0  0  0
 19 24  2  0  0  0  0
 19 52  1  0  0  0  0
 20 23  1  0  0  0  0
 21 22  1  0  0  0  0
 21 25  1  0  0  0  0
 21 53  1  0  0  0  0
 22 26  1  0  0  0  0
 22 27  1  0  0  0  0
 22 54  1  0  0  0  0
 23 55  1  0  0  0  0
 23 56  1  0  0  0  0
 24 28  1  0  0  0  0
 24 57  1  0  0  0  0
 26 59  1  0  0  0  0
 26 60  1  0  0  0  0
 26 61  1  0  0  0  0
 27 62  1  0  0  0  0
 27 63  1  0  0  0  0
 27 64  1  0  0  0  0
 29 30  1  0  0  0  0
 30 32  1  0  0  0  0
 31 34  1  0  0  0  0
 31 67  1  0  0  0  0
 31 68  1  0  0  0  0
 32 33  2  0  0  0  0
 32 66  1  0  0  0  0
 33 35  1  0  0  0  0
 34 69  1  0  0  0  0
 34 70  1  0  0  0  0
 34 71  1  0  0  0  0
 35 72  1  0  0  0  0
 35 73  1  0  0  0  0
 35 74  1  0  0  0  0
 36 37  2  0  0  0  0
 36 38  1  0  0  0  0
 36 75  1  0  0  0  0
 37 39  1  0  0  0  0
 37 76  1  0  0  0  0
 38 40  2  0  0  0  0
 38 77  1  0  0  0  0
 39 41  2  0  0  0  0
 39 78  1  0  0  0  0
 40 41  1  0  0  0  0
 40 79  1  0  0  0  0
 41 80  1  0  0  0  0
M  END
> <PUBCHEM_COMPOUND_CID>
143215525

> <PUBCHEM_COMPOUND_CANONICALIZED>
1

> <PUBCHEM_CACTVS_COMPLEXITY>
832

> <PUBCHEM_CACTVS_HBOND_ACCEPTOR>
8

> <PUBCHEM_CACTVS_HBOND_DONOR>
4

> <PUBCHEM_CACTVS_ROTATABLE_BOND>
13

> <PUBCHEM_CACTVS_SUBSKEYS>
AAADcfB7uAAAAAAAAAAAAAAAAAAAAWLAAAAwAAAAAAAAAAABwAAAHgAUAAAADSzhlgYyjJLQBACpAaXyWgCCAAAmIgAomKG+bNoIZjqAtbOWMYhmlhiI6cc/AAAOAAAAAAAAAAAAAAAAAAAAAAAAAAAAAA==

> <PUBCHEM_IUPAC_OPENEYE_NAME>
benzene;ethyl (E)-4-[[2-[[3-methyl-2-[(5-methylisoxazole-3-carbonyl)amino]butanoyl]amino]acetyl]amino]-5-(2-oxopyrrolidin-3-yl)pent-2-enoate

> <PUBCHEM_IUPAC_CAS_NAME>
benzene;(E)-4-[[2-[[3-methyl-2-[[(5-methyl-3-isoxazolyl)-oxomethyl]amino]-1-oxobutyl]amino]-1-oxoethyl]amino]-5-(2-oxo-3-pyrrolidinyl)-2-pentenoic acid ethyl ester

> <PUBCHEM_IUPAC_NAME_MARKUP>
benzene;ethyl (<I>E</I>)-4-[[2-[[3-methyl-2-[(5-methyl-1,2-oxazole-3-carbonyl)amino]butanoyl]amino]acetyl]amino]-5-(2-oxopyrrolidin-3-yl)pent-2-enoate

> <PUBCHEM_IUPAC_NAME>
benzene;ethyl (E)-4-[[2-[[3-methyl-2-[(5-methyl-1,2-oxazole-3-carbonyl)amino]butanoyl]amino]acetyl]amino]-5-(2-oxopyrrolidin-3-yl)pent-2-enoate

> <PUBCHEM_IUPAC_SYSTEMATIC_NAME>
benzene;ethyl (E)-4-[2-[[3-methyl-2-[(5-methyl-1,2-oxazol-3-yl)carbonylamino]butanoyl]amino]ethanoylamino]-5-(2-oxidanylidenepyrrolidin-3-yl)pent-2-enoate

> <PUBCHEM_IUPAC_TRADITIONAL_NAME>
benzene;(E)-5-(2-ketopyrrolidin-3-yl)-4-[[2-[[3-methyl-2-[(5-methylisoxazole-3-carbonyl)amino]butanoyl]amino]acetyl]amino]pent-2-enoic acid ethyl ester

> <PUBCHEM_IUPAC_INCHI>
InChI=1S/C23H33N5O7.C6H6/c1-5-34-19(30)7-6-16(11-15-8-9-24-21(15)31)26-18(29)12-25-23(33)20(13(2)3)27-22(32)17-10-14(4)35-28-17;1-2-4-6-5-3-1/h6-7,10,13,15-16,20H,5,8-9,11-12H2,1-4H3,(H,24,31)(H,25,33)(H,26,29)(H,27,32);1-6H/b7-6+;

> <PUBCHEM_IUPAC_INCHIKEY>
QEULJVRSNXYIBM-UHDJGPCESA-N

> <PUBCHEM_EXACT_MASS>
569.284949

> <PUBCHEM_MOLECULAR_FORMULA>
C29H39N5O7

> <PUBCHEM_MOLECULAR_WEIGHT>
569.6

> <PUBCHEM_OPENEYE_CAN_SMILES>
CCOC(=O)C=CC(CC1CCNC1=O)NC(=O)CNC(=O)C(C(C)C)NC(=O)C2=NOC(=C2)C.C1=CC=CC=C1

> <PUBCHEM_OPENEYE_ISO_SMILES>
CCOC(=O)/C=C/C(CC1CCNC1=O)NC(=O)CNC(=O)C(C(C)C)NC(=O)C2=NOC(=C2)C.C1=CC=CC=C1

> <PUBCHEM_CACTVS_TPSA>
169

> <PUBCHEM_MONOISOTOPIC_WEIGHT>
569.284949

> <PUBCHEM_TOTAL_CHARGE>
0

> <PUBCHEM_HEAVY_ATOM_COUNT>
41

> <PUBCHEM_ATOM_DEF_STEREO_COUNT>
0

> <PUBCHEM_ATOM_UDEF_STEREO_COUNT>
3

> <PUBCHEM_BOND_DEF_STEREO_COUNT>
1

> <PUBCHEM_BOND_UDEF_STEREO_COUNT>
0

> <PUBCHEM_ISOTOPIC_ATOM_COUNT>
0

> <PUBCHEM_COMPONENT_COUNT>
2

> <PUBCHEM_CACTVS_TAUTO_COUNT>
-1

> <PUBCHEM_COORDINATE_TYPE>
1
5
255

> <PUBCHEM_BONDANNOTATIONS>
12  30  8
13  15  3
17  15  3
21  22  3
30  32  8
32  33  8
36  37  8
36  38  8
37  39  8
38  40  8
39  41  8
40  41  8
7  12  8
7  33  8

$$$$
143215532
  -OEChem-02212016592D

112111  0     1  0  0  0  0  0999 V2000
   13.7216    5.7351    0.0000 O   0  0  0  0  0  0  0  0  0  0  0  0
    9.1360    8.1200    0.0000 O   0  0  0  0  0  0  0  0  0  0  0  0
    9.1360    4.1200    0.0000 O   0  0  0  0  0  0  0  0  0  0  0  0
    8.2700    8.6200    0.0000 O   0  0  0  0  0  0  0  0  0  0  0  0
    8.2700    5.6200    0.0000 O   0  0  0  0  0  0  0  0  0  0  0  0
    4.8059    9.6200    0.0000 O   0  0  0  0  0  0  0  0  0  0  0  0
   11.8785   17.3377    0.0000 O   0  0  0  0  0  0  0  0  0  0  0  0
    8.5662   17.6978    0.0000 O   0  0  0  0  0  0  0  0  0  0  0  0
   14.1828    7.4564    0.0000 N   0  0  0  0  0  0  0  0  0  0  0  0
   10.8681    8.1200    0.0000 N   0  0  0  0  0  0  0  0  0  0  0  0
    9.1360   10.1200    0.0000 N   0  0  0  0  0  0  0  0  0  0  0  0
    6.5380    9.6200    0.0000 N   0  0  0  0  0  0  0  0  0  0  0  0
    9.1015   16.0506    0.0000 N   0  0  0  0  0  0  0  0  0  0  0  0
   11.0695   16.7499    0.0000 N   0  0  0  0  0  0  0  0  0  0  0  0
   12.6002    7.1200    0.0000 C   0  0  3  0  0  0  0  0  0  0  0  0
   11.7341    6.6200    0.0000 C   0  0  0  0  0  0  0  0  0  0  0  0
   12.7047    8.1145    0.0000 C   0  0  0  0  0  0  0  0  0  0  0  0
   10.8681    7.1200    0.0000 C   0  0  3  0  0  0  0  0  0  0  0  0
   13.6828    8.3224    0.0000 C   0  0  0  0  0  0  0  0  0  0  0  0
   13.5137    6.7133    0.0000 C   0  0  0  0  0  0  0  0  0  0  0  0
   10.0021    9.6200    0.0000 C   0  0  3  0  0  0  0  0  0  0  0  0
   10.0021    6.6200    0.0000 C   0  0  0  0  0  0  0  0  0  0  0  0
   10.8681   10.1200    0.0000 C   0  0  0  0  0  0  0  0  0  0  0  0
   10.0021    8.6200    0.0000 C   0  0  0  0  0  0  0  0  0  0  0  0
   10.8681   11.1200    0.0000 C   0  0  0  0  0  0  0  0  0  0  0  0
   10.0021    5.6200    0.0000 C   0  0  0  0  0  0  0  0  0  0  0  0
   11.7341   11.6200    0.0000 C   0  0  0  0  0  0  0  0  0  0  0  0
   10.0021   11.6200    0.0000 C   0  0  0  0  0  0  0  0  0  0  0  0
    8.2700    9.6200    0.0000 C   0  0  0  0  0  0  0  0  0  0  0  0
    9.1360    5.1200    0.0000 C   0  0  0  0  0  0  0  0  0  0  0  0
    7.4040   10.1200    0.0000 C   0  0  0  0  0  0  0  0  0  0  0  0
    8.2700    3.6200    0.0000 C   0  0  0  0  0  0  0  0  0  0  0  0
    8.2700    2.6200    0.0000 C   0  0  0  0  0  0  0  0  0  0  0  0
    5.6720   10.1200    0.0000 C   0  0  0  0  0  0  0  0  0  0  0  0
    9.1360    2.1200    0.0000 C   0  0  0  0  0  0  0  0  0  0  0  0
    7.4040    2.1200    0.0000 C   0  0  0  0  0  0  0  0  0  0  0  0
    9.1360    1.1200    0.0000 C   0  0  0  0  0  0  0  0  0  0  0  0
    7.4040    1.1200    0.0000 C   0  0  0  0  0  0  0  0  0  0  0  0
    8.2700    0.6200    0.0000 C   0  0  0  0  0  0  0  0  0  0  0  0
    8.1504   15.7415    0.0000 C   0  0  0  0  0  0  0  0  0  0  0  0
    7.9425   14.7634    0.0000 C   0  0  0  0  0  0  0  0  0  0  0  0
    7.4073   16.4107    0.0000 C   0  0  0  0  0  0  0  0  0  0  0  0
    9.3094   17.0287    0.0000 C   0  0  0  0  0  0  0  0  0  0  0  0
   10.2604   17.3377    0.0000 C   0  0  0  0  0  0  0  0  0  0  0  0
   10.5695   18.2888    0.0000 C   0  0  0  0  0  0  0  0  0  0  0  0
   11.5695   18.2888    0.0000 C   0  0  0  0  0  0  0  0  0  0  0  0
   12.1572   19.0978    0.0000 C   0  0  0  0  0  0  0  0  0  0  0  0
    1.4030    9.5187    0.0000 C   0  0  0  0  0  0  0  0  0  0  0  0
    2.2690   10.0187    0.0000 C   0  0  0  0  0  0  0  0  0  0  0  0
    0.5369   10.0187    0.0000 C   0  0  0  0  0  0  0  0  0  0  0  0
   18.4194    9.7997    0.0000 C   0  0  0  0  0  0  0  0  0  0  0  0
   17.4194    9.7997    0.0000 C   0  0  0  0  0  0  0  0  0  0  0  0
   12.0802    7.4577    0.0000 H   0  0  0  0  0  0  0  0  0  0  0  0
   11.3356    6.1450    0.0000 H   0  0  0  0  0  0  0  0  0  0  0  0
   12.1327    6.1450    0.0000 H   0  0  0  0  0  0  0  0  0  0  0  0
   12.6399    8.7311    0.0000 H   0  0  0  0  0  0  0  0  0  0  0  0
   12.0847    8.1145    0.0000 H   0  0  0  0  0  0  0  0  0  0  0  0
   10.3312    7.4300    0.0000 H   0  0  0  0  0  0  0  0  0  0  0  0
   14.2492    8.5746    0.0000 H   0  0  0  0  0  0  0  0  0  0  0  0
   13.4912    8.9121    0.0000 H   0  0  0  0  0  0  0  0  0  0  0  0
   14.7994    7.3916    0.0000 H   0  0  0  0  0  0  0  0  0  0  0  0
   11.4050    8.4300    0.0000 H   0  0  0  0  0  0  0  0  0  0  0  0
    9.4651    9.3100    0.0000 H   0  0  0  0  0  0  0  0  0  0  0  0
    9.4651    6.9300    0.0000 H   0  0  0  0  0  0  0  0  0  0  0  0
   11.0802    9.5374    0.0000 H   0  0  0  0  0  0  0  0  0  0  0  0
   11.4787   10.2277    0.0000 H   0  0  0  0  0  0  0  0  0  0  0  0
   10.8681   11.7400    0.0000 H   0  0  0  0  0  0  0  0  0  0  0  0
    9.1360   10.7400    0.0000 H   0  0  0  0  0  0  0  0  0  0  0  0
   10.5390    5.3100    0.0000 H   0  0  0  0  0  0  0  0  0  0  0  0
   12.0441   11.0831    0.0000 H   0  0  0  0  0  0  0  0  0  0  0  0
   12.2711   11.9300    0.0000 H   0  0  0  0  0  0  0  0  0  0  0  0
   11.4241   12.1569    0.0000 H   0  0  0  0  0  0  0  0  0  0  0  0
   10.3121   12.1569    0.0000 H   0  0  0  0  0  0  0  0  0  0  0  0
    9.4651   11.9300    0.0000 H   0  0  0  0  0  0  0  0  0  0  0  0
    9.6921   11.0831    0.0000 H   0  0  0  0  0  0  0  0  0  0  0  0
    7.8025   10.5949    0.0000 H   0  0  0  0  0  0  0  0  0  0  0  0
    7.0055   10.5949    0.0000 H   0  0  0  0  0  0  0  0  0  0  0  0
    6.5380    9.0000    0.0000 H   0  0  0  0  0  0  0  0  0  0  0  0
    8.0580    4.2026    0.0000 H   0  0  0  0  0  0  0  0  0  0  0  0
    7.6594    3.5123    0.0000 H   0  0  0  0  0  0  0  0  0  0  0  0
    5.6720   10.7400    0.0000 H   0  0  0  0  0  0  0  0  0  0  0  0
    9.6730    2.4300    0.0000 H   0  0  0  0  0  0  0  0  0  0  0  0
    6.8671    2.4300    0.0000 H   0  0  0  0  0  0  0  0  0  0  0  0
    9.6730    0.8100    0.0000 H   0  0  0  0  0  0  0  0  0  0  0  0
    6.8671    0.8100    0.0000 H   0  0  0  0  0  0  0  0  0  0  0  0
    8.2700    0.0000    0.0000 H   0  0  0  0  0  0  0  0  0  0  0  0
    8.2793   16.3480    0.0000 H   0  0  0  0  0  0  0  0  0  0  0  0
    7.3360   14.8923    0.0000 H   0  0  0  0  0  0  0  0  0  0  0  0
    7.8136   14.1569    0.0000 H   0  0  0  0  0  0  0  0  0  0  0  0
    8.5490   14.6345    0.0000 H   0  0  0  0  0  0  0  0  0  0  0  0
    7.8221   16.8714    0.0000 H   0  0  0  0  0  0  0  0  0  0  0  0
    6.9465   16.8255    0.0000 H   0  0  0  0  0  0  0  0  0  0  0  0
    6.9924   15.9499    0.0000 H   0  0  0  0  0  0  0  0  0  0  0  0
    9.5622   15.6357    0.0000 H   0  0  0  0  0  0  0  0  0  0  0  0
   10.2050   18.7904    0.0000 H   0  0  0  0  0  0  0  0  0  0  0  0
   12.6588   18.7334    0.0000 H   0  0  0  0  0  0  0  0  0  0  0  0
   12.5217   19.5994    0.0000 H   0  0  0  0  0  0  0  0  0  0  0  0
   11.6557   19.4622    0.0000 H   0  0  0  0  0  0  0  0  0  0  0  0
    1.0044    9.0438    0.0000 H   0  0  0  0  0  0  0  0  0  0  0  0
    1.8015    9.0438    0.0000 H   0  0  0  0  0  0  0  0  0  0  0  0
    2.5790    9.4818    0.0000 H   0  0  0  0  0  0  0  0  0  0  0  0
    2.8059   10.3287    0.0000 H   0  0  0  0  0  0  0  0  0  0  0  0
    1.9590   10.5556    0.0000 H   0  0  0  0  0  0  0  0  0  0  0  0
    0.8469   10.5556    0.0000 H   0  0  0  0  0  0  0  0  0  0  0  0
    0.0000   10.3287    0.0000 H   0  0  0  0  0  0  0  0  0  0  0  0
    0.2269    9.4818    0.0000 H   0  0  0  0  0  0  0  0  0  0  0  0
   18.4194    9.1797    0.0000 H   0  0  0  0  0  0  0  0  0  0  0  0
   19.0394    9.7997    0.0000 H   0  0  0  0  0  0  0  0  0  0  0  0
   18.4194   10.4197    0.0000 H   0  0  0  0  0  0  0  0  0  0  0  0
   17.4194   10.4197    0.0000 H   0  0  0  0  0  0  0  0  0  0  0  0
   16.7994    9.7997    0.0000 H   0  0  0  0  0  0  0  0  0  0  0  0
   17.4194    9.1797    0.0000 H   0  0  0  0  0  0  0  0  0  0  0  0
  1 20  2  0  0  0  0
  2 24  2  0  0  0  0
  3 30  1  0  0  0  0
  3 32  1  0  0  0  0
  4 29  2  0  0  0  0
  5 30  2  0  0  0  0
  6 34  2  0  0  0  0
  7 14  1  0  0  0  0
  7 46  1  0  0  0  0
  8 43  2  0  0  0  0
  9 19  1  0  0  0  0
  9 20  1  0  0  0  0
  9 61  1  0  0  0  0
 10 18  1  0  0  0  0
 10 24  1  0  0  0  0
 10 62  1  0  0  0  0
 11 21  1  0  0  0  0
 11 29  1  0  0  0  0
 11 68  1  0  0  0  0
 12 31  1  0  0  0  0
 12 34  1  0  0  0  0
 12 78  1  0  0  0  0
 13 40  1  0  0  0  0
 13 43  1  0  0  0  0
 13 94  1  0  0  0  0
 14 44  2  0  0  0  0
 15 16  1  0  0  0  0
 15 17  1  0  0  0  0
 15 20  1  0  0  0  0
 15 53  1  0  0  0  0
 16 18  1  0  0  0  0
 16 54  1  0  0  0  0
 16 55  1  0  0  0  0
 17 19  1  0  0  0  0
 17 56  1  0  0  0  0
 17 57  1  0  0  0  0
 18 22  1  0  0  0  0
 18 58  1  0  0  0  0
 19 59  1  0  0  0  0
 19 60  1  0  0  0  0
 21 23  1  0  0  0  0
 21 24  1  0  0  0  0
 21 63  1  0  0  0  0
 22 26  2  0  0  0  0
 22 64  1  0  0  0  0
 23 25  1  0  0  0  0
 23 65  1  0  0  0  0
 23 66  1  0  0  0  0
 25 27  1  0  0  0  0
 25 28  1  0  0  0  0
 25 67  1  0  0  0  0
 26 30  1  0  0  0  0
 26 69  1  0  0  0  0
 27 70  1  0  0  0  0
 27 71  1  0  0  0  0
 27 72  1  0  0  0  0
 28 73  1  0  0  0  0
 28 74  1  0  0  0  0
 28 75  1  0  0  0  0
 29 31  1  0  0  0  0
 31 76  1  0  0  0  0
 31 77  1  0  0  0  0
 32 33  1  0  0  0  0
 32 79  1  0  0  0  0
 32 80  1  0  0  0  0
 33 35  2  0  0  0  0
 33 36  1  0  0  0  0
 34 81  1  0  0  0  0
 35 37  1  0  0  0  0
 35 82  1  0  0  0  0
 36 38  2  0  0  0  0
 36 83  1  0  0  0  0
 37 39  2  0  0  0  0
 37 84  1  0  0  0  0
 38 39  1  0  0  0  0
 38 85  1  0  0  0  0
 39 86  1  0  0  0  0
 40 41  1  0  0  0  0
 40 42  1  0  0  0  0
 40 87  1  0  0  0  0
 41 88  1  0  0  0  0
 41 89  1  0  0  0  0
 41 90  1  0  0  0  0
 42 91  1  0  0  0  0
 42 92  1  0  0  0  0
 42 93  1  0  0  0  0
 43 44  1  0  0  0  0
 44 45  1  0  0  0  0
 45 46  2  0  0  0  0
 45 95  1  0  0  0  0
 46 47  1  0  0  0  0
 47 96  1  0  0  0  0
 47 97  1  0  0  0  0
 47 98  1  0  0  0  0
 48 49  1  0  0  0  0
 48 50  1  0  0  0  0
 48 99  1  0  0  0  0
 48100  1  0  0  0  0
 49101  1  0  0  0  0
 49102  1  0  0  0  0
 49103  1  0  0  0  0
 50104  1  0  0  0  0
 50105  1  0  0  0  0
 50106  1  0  0  0  0
 51 52  1  0  0  0  0
 51107  1  0  0  0  0
 51108  1  0  0  0  0
 51109  1  0  0  0  0
 52110  1  0  0  0  0
 52111  1  0  0  0  0
 52112  1  0  0  0  0
M  END
> <PUBCHEM_COMPOUND_CID>
143215532

> <PUBCHEM_COMPOUND_CANONICALIZED>
1

> <PUBCHEM_CACTVS_COMPLEXITY>
934

> <PUBCHEM_CACTVS_HBOND_ACCEPTOR>
9

> <PUBCHEM_CACTVS_HBOND_DONOR>
5

> <PUBCHEM_CACTVS_ROTATABLE_BOND>
16

> <PUBCHEM_CACTVS_SUBSKEYS>
AAADcfB/vAAAAAAAAAAAAAAAAAAAAWLAAAAwAAAAAAAAAAABwAAAHgAUAAAADSzhngYyjJLQBACpA6Xy2gCCAAAmIgAomKG+bNoIZjqAtbuWMYhm1hmI6ce/wCAOAAAAAAAAAAAAAAAAAAAAAAAAAAAAAA==

> <PUBCHEM_IUPAC_OPENEYE_NAME>
benzyl (E)-4-[[2-[(2-formamidoacetyl)amino]-4-methyl-pentanoyl]amino]-5-(2-oxopyrrolidin-3-yl)pent-2-enoate;ethane;N-isopropyl-5-methyl-isoxazole-3-carboxamide;propane

> <PUBCHEM_IUPAC_CAS_NAME>
ethane;(E)-4-[[2-[(2-formamido-1-oxoethyl)amino]-4-methyl-1-oxopentyl]amino]-5-(2-oxo-3-pyrrolidinyl)-2-pentenoic acid (phenylmethyl) ester;5-methyl-N-propan-2-yl-3-isoxazolecarboxamide;propane

> <PUBCHEM_IUPAC_NAME_MARKUP>
benzyl (<I>E</I>)-4-[[2-[(2-formamidoacetyl)amino]-4-methylpentanoyl]amino]-5-(2-oxopyrrolidin-3-yl)pent-2-enoate;ethane;5-methyl-<I>N</I>-propan-2-yl-1,2-oxazole-3-carboxamide;propane

> <PUBCHEM_IUPAC_NAME>
benzyl (E)-4-[[2-[(2-formamidoacetyl)amino]-4-methylpentanoyl]amino]-5-(2-oxopyrrolidin-3-yl)pent-2-enoate;ethane;5-methyl-N-propan-2-yl-1,2-oxazole-3-carboxamide;propane

> <PUBCHEM_IUPAC_SYSTEMATIC_NAME>
ethane;5-methyl-N-propan-2-yl-1,2-oxazole-3-carboxamide;(phenylmethyl) (E)-4-[[2-(2-formamidoethanoylamino)-4-methyl-pentanoyl]amino]-5-(2-oxidanylidenepyrrolidin-3-yl)pent-2-enoate;propane

> <PUBCHEM_IUPAC_TRADITIONAL_NAME>
ethane;(E)-4-[[2-[(2-formamidoacetyl)amino]-4-methyl-pentanoyl]amino]-5-(2-ketopyrrolidin-3-yl)pent-2-enoic acid benzyl ester;N-isopropyl-5-methyl-isoxazole-3-carboxamide;n-propane

> <PUBCHEM_IUPAC_INCHI>
InChI=1S/C25H34N4O6.C8H12N2O2.C3H8.C2H6/c1-17(2)12-21(29-22(31)14-26-16-30)25(34)28-20(13-19-10-11-27-24(19)33)8-9-23(32)35-15-18-6-4-3-5-7-18;1-5(2)9-8(11)7-4-6(3)12-10-7;1-3-2;1-2/h3-9,16-17,19-21H,10-15H2,1-2H3,(H,26,30)(H,27,33)(H,28,34)(H,29,31);4-5H,1-3H3,(H,9,11);3H2,1-2H3;1-2H3/b9-8+;;;

> <PUBCHEM_IUPAC_INCHIKEY>
FCMAUYHXZQFXTL-BILRHTGOSA-N

> <PUBCHEM_EXACT_MASS>
728.447263

> <PUBCHEM_MOLECULAR_FORMULA>
C38H60N6O8

> <PUBCHEM_MOLECULAR_WEIGHT>
728.9

> <PUBCHEM_OPENEYE_CAN_SMILES>
CC.CCC.CC1=CC(=NO1)C(=O)NC(C)C.CC(C)CC(C(=O)NC(CC1CCNC1=O)C=CC(=O)OCC2=CC=CC=C2)NC(=O)CNC=O

> <PUBCHEM_OPENEYE_ISO_SMILES>
CC.CCC.CC1=CC(=NO1)C(=O)NC(C)C.CC(C)CC(C(=O)NC(CC1CCNC1=O)/C=C/C(=O)OCC2=CC=CC=C2)NC(=O)CNC=O

> <PUBCHEM_CACTVS_TPSA>
198

> <PUBCHEM_MONOISOTOPIC_WEIGHT>
728.447263

> <PUBCHEM_TOTAL_CHARGE>
0

> <PUBCHEM_HEAVY_ATOM_COUNT>
52

> <PUBCHEM_ATOM_DEF_STEREO_COUNT>
0

> <PUBCHEM_ATOM_UDEF_STEREO_COUNT>
3

> <PUBCHEM_BOND_DEF_STEREO_COUNT>
1

> <PUBCHEM_BOND_UDEF_STEREO_COUNT>
0

> <PUBCHEM_ISOTOPIC_ATOM_COUNT>
0

> <PUBCHEM_COMPONENT_COUNT>
4

> <PUBCHEM_CACTVS_TAUTO_COUNT>
-1

> <PUBCHEM_COORDINATE_TYPE>
1
5
255

> <PUBCHEM_BONDANNOTATIONS>
14  44  8
15  16  3
18  16  3
21  23  3
33  35  8
33  36  8
35  37  8
36  38  8
37  39  8
38  39  8
44  45  8
45  46  8
7  14  8
7  46  8

$$$$
143436732
  -OEChem-02212016592D

 83 84  0     1  0  0  0  0  0999 V2000
    7.3226    4.6200    0.0000 F   0  0  0  0  0  0  0  0  0  0  0  0
   10.3606    7.5188    0.0000 O   0  0  0  0  0  0  0  0  0  0  0  0
    8.4681   12.3285    0.0000 O   0  0  0  0  0  0  0  0  0  0  0  0
    4.8968   11.8331    0.0000 O   0  0  0  0  0  0  0  0  0  0  0  0
   12.4462   11.9104    0.0000 O   0  0  0  0  0  0  0  0  0  0  0  0
   11.0450   12.9285    0.0000 O   0  0  0  0  0  0  0  0  0  0  0  0
    4.2644   15.3827    0.0000 O   0  0  0  0  0  0  0  0  0  0  0  0
    1.0994   14.3418    0.0000 O   0  0  0  0  0  0  0  0  0  0  0  0
    8.6006    7.2400    0.0000 N   0  0  0  0  0  0  0  0  0  0  0  0
    8.2871   10.6059    0.0000 N   0  0  0  0  0  0  0  0  0  0  0  0
    6.4791   12.5376    0.0000 N   0  0  0  0  0  0  0  0  0  0  0  0
    4.0833   13.6602    0.0000 N   0  0  0  0  0  0  0  0  0  0  0  0
    2.0129   13.9351    0.0000 N   0  0  0  0  0  0  0  0  0  0  0  0
    9.1006    8.7788    0.0000 C   0  0  3  0  0  0  0  0  0  0  0  0
    8.1006    8.7788    0.0000 C   0  0  0  0  0  0  0  0  0  0  0  0
    9.6883    9.5879    0.0000 C   0  0  0  0  0  0  0  0  0  0  0  0
    7.7915    7.8278    0.0000 C   0  0  0  0  0  0  0  0  0  0  0  0
    9.2816   10.5014    0.0000 C   0  0  3  0  0  0  0  0  0  0  0  0
    9.4096    7.8278    0.0000 C   0  0  0  0  0  0  0  0  0  0  0  0
    9.8694   11.3104    0.0000 C   0  0  0  0  0  0  0  0  0  0  0  0
    7.8803   11.5195    0.0000 C   0  0  0  0  0  0  0  0  0  0  0  0
    5.0778   13.5556    0.0000 C   0  0  3  0  0  0  0  0  0  0  0  0
    5.6656   14.3646    0.0000 C   0  0  0  0  0  0  0  0  0  0  0  0
    6.8858   11.6240    0.0000 C   0  0  0  0  0  0  0  0  0  0  0  0
   10.8639   11.2059    0.0000 C   0  0  0  0  0  0  0  0  0  0  0  0
    5.4846   12.6421    0.0000 C   0  0  0  0  0  0  0  0  0  0  0  0
    5.2589   15.2782    0.0000 C   0  0  0  0  0  0  0  0  0  0  0  0
    6.6601   14.2601    0.0000 C   0  0  0  0  0  0  0  0  0  0  0  0
   11.4517   12.0149    0.0000 C   0  0  0  0  0  0  0  0  0  0  0  0
    3.6766   14.5737    0.0000 C   0  0  0  0  0  0  0  0  0  0  0  0
    2.6820   14.6782    0.0000 C   0  0  0  0  0  0  0  0  0  0  0  0
   13.0340   12.7194    0.0000 C   0  0  0  0  0  0  0  0  0  0  0  0
    2.1820   15.5443    0.0000 C   0  0  0  0  0  0  0  0  0  0  0  0
    1.2039   15.3363    0.0000 C   0  0  0  0  0  0  0  0  0  0  0  0
   14.0285   12.6149    0.0000 C   0  0  0  0  0  0  0  0  0  0  0  0
    0.4608   16.0055    0.0000 C   0  0  0  0  0  0  0  0  0  0  0  0
    7.3226    1.6200    0.0000 C   0  0  0  0  0  0  0  0  0  0  0  0
    6.4565    2.1200    0.0000 C   0  0  0  0  0  0  0  0  0  0  0  0
    8.1886    2.1200    0.0000 C   0  0  0  0  0  0  0  0  0  0  0  0
    7.3226    0.6200    0.0000 C   0  0  0  0  0  0  0  0  0  0  0  0
    6.4565    3.1200    0.0000 C   0  0  0  0  0  0  0  0  0  0  0  0
    8.1886    3.1200    0.0000 C   0  0  0  0  0  0  0  0  0  0  0  0
    7.3226    3.6200    0.0000 C   0  0  0  0  0  0  0  0  0  0  0  0
    9.7129    8.6819    0.0000 H   0  0  0  0  0  0  0  0  0  0  0  0
    8.1654    9.3954    0.0000 H   0  0  0  0  0  0  0  0  0  0  0  0
    7.4941    8.9078    0.0000 H   0  0  0  0  0  0  0  0  0  0  0  0
   10.1190    9.1419    0.0000 H   0  0  0  0  0  0  0  0  0  0  0  0
   10.2023    9.9346    0.0000 H   0  0  0  0  0  0  0  0  0  0  0  0
    7.2251    8.0800    0.0000 H   0  0  0  0  0  0  0  0  0  0  0  0
    7.4815    7.2908    0.0000 H   0  0  0  0  0  0  0  0  0  0  0  0
    8.9172    9.9998    0.0000 H   0  0  0  0  0  0  0  0  0  0  0  0
    8.6006    6.6200    0.0000 H   0  0  0  0  0  0  0  0  0  0  0  0
    7.9226   10.1043    0.0000 H   0  0  0  0  0  0  0  0  0  0  0  0
    9.6172   11.8768    0.0000 H   0  0  0  0  0  0  0  0  0  0  0  0
    5.6944   13.4908    0.0000 H   0  0  0  0  0  0  0  0  0  0  0  0
    5.0490   14.4295    0.0000 H   0  0  0  0  0  0  0  0  0  0  0  0
    6.2842   11.4740    0.0000 H   0  0  0  0  0  0  0  0  0  0  0  0
    6.9291   11.0055    0.0000 H   0  0  0  0  0  0  0  0  0  0  0  0
   11.1161   10.6395    0.0000 H   0  0  0  0  0  0  0  0  0  0  0  0
    6.8435   13.0391    0.0000 H   0  0  0  0  0  0  0  0  0  0  0  0
    5.8253   15.5304    0.0000 H   0  0  0  0  0  0  0  0  0  0  0  0
    5.0067   15.8446    0.0000 H   0  0  0  0  0  0  0  0  0  0  0  0
    4.6925   15.0260    0.0000 H   0  0  0  0  0  0  0  0  0  0  0  0
    6.5953   13.6435    0.0000 H   0  0  0  0  0  0  0  0  0  0  0  0
    7.2767   14.1953    0.0000 H   0  0  0  0  0  0  0  0  0  0  0  0
    6.7249   14.8767    0.0000 H   0  0  0  0  0  0  0  0  0  0  0  0
    3.7189   13.1586    0.0000 H   0  0  0  0  0  0  0  0  0  0  0  0
   13.2049   13.3154    0.0000 H   0  0  0  0  0  0  0  0  0  0  0  0
   12.4767   12.9912    0.0000 H   0  0  0  0  0  0  0  0  0  0  0  0
    2.4342   16.1107    0.0000 H   0  0  0  0  0  0  0  0  0  0  0  0
   13.9637   11.9983    0.0000 H   0  0  0  0  0  0  0  0  0  0  0  0
   14.6451   12.5501    0.0000 H   0  0  0  0  0  0  0  0  0  0  0  0
   14.0933   13.2315    0.0000 H   0  0  0  0  0  0  0  0  0  0  0  0
    0.8756   16.4662    0.0000 H   0  0  0  0  0  0  0  0  0  0  0  0
    0.0000   16.4203    0.0000 H   0  0  0  0  0  0  0  0  0  0  0  0
    0.0459   15.5447    0.0000 H   0  0  0  0  0  0  0  0  0  0  0  0
    5.9196    1.8100    0.0000 H   0  0  0  0  0  0  0  0  0  0  0  0
    8.7255    1.8100    0.0000 H   0  0  0  0  0  0  0  0  0  0  0  0
    6.7026    0.6200    0.0000 H   0  0  0  0  0  0  0  0  0  0  0  0
    7.3226    0.0000    0.0000 H   0  0  0  0  0  0  0  0  0  0  0  0
    7.9426    0.6200    0.0000 H   0  0  0  0  0  0  0  0  0  0  0  0
    5.9196    3.4300    0.0000 H   0  0  0  0  0  0  0  0  0  0  0  0
    8.7255    3.4300    0.0000 H   0  0  0  0  0  0  0  0  0  0  0  0
  1 43  1  0  0  0  0
  2 19  2  0  0  0  0
  3 21  2  0  0  0  0
  4 26  2  0  0  0  0
  5 29  1  0  0  0  0
  5 32  1  0  0  0  0
  6 29  2  0  0  0  0
  7 30  2  0  0  0  0
  8 13  1  0  0  0  0
  8 34  1  0  0  0  0
  9 17  1  0  0  0  0
  9 19  1  0  0  0  0
  9 52  1  0  0  0  0
 10 18  1  0  0  0  0
 10 21  1  0  0  0  0
 10 53  1  0  0  0  0
 11 24  1  0  0  0  0
 11 26  1  0  0  0  0
 11 60  1  0  0  0  0
 12 22  1  0  0  0  0
 12 30  1  0  0  0  0
 12 67  1  0  0  0  0
 13 31  2  0  0  0  0
 14 15  1  0  0  0  0
 14 16  1  0  0  0  0
 14 19  1  0  0  0  0
 14 44  1  0  0  0  0
 15 17  1  0  0  0  0
 15 45  1  0  0  0  0
 15 46  1  0  0  0  0
 16 18  1  0  0  0  0
 16 47  1  0  0  0  0
 16 48  1  0  0  0  0
 17 49  1  0  0  0  0
 17 50  1  0  0  0  0
 18 20  1  0  0  0  0
 18 51  1  0  0  0  0
 20 25  2  0  0  0  0
 20 54  1  0  0  0  0
 21 24  1  0  0  0  0
 22 23  1  0  0  0  0
 22 26  1  0  0  0  0
 22 55  1  0  0  0  0
 23 27  1  0  0  0  0
 23 28  1  0  0  0  0
 23 56  1  0  0  0  0
 24 57  1  0  0  0  0
 24 58  1  0  0  0  0
 25 29  1  0  0  0  0
 25 59  1  0  0  0  0
 27 61  1  0  0  0  0
 27 62  1  0  0  0  0
 27 63  1  0  0  0  0
 28 64  1  0  0  0  0
 28 65  1  0  0  0  0
 28 66  1  0  0  0  0
 30 31  1  0  0  0  0
 31 33  1  0  0  0  0
 32 35  1  0  0  0  0
 32 68  1  0  0  0  0
 32 69  1  0  0  0  0
 33 34  2  0  0  0  0
 33 70  1  0  0  0  0
 34 36  1  0  0  0  0
 35 71  1  0  0  0  0
 35 72  1  0  0  0  0
 35 73  1  0  0  0  0
 36 74  1  0  0  0  0
 36 75  1  0  0  0  0
 36 76  1  0  0  0  0
 37 38  2  0  0  0  0
 37 39  1  0  0  0  0
 37 40  1  0  0  0  0
 38 41  1  0  0  0  0
 38 77  1  0  0  0  0
 39 42  2  0  0  0  0
 39 78  1  0  0  0  0
 40 79  1  0  0  0  0
 40 80  1  0  0  0  0
 40 81  1  0  0  0  0
 41 43  2  0  0  0  0
 41 82  1  0  0  0  0
 42 43  1  0  0  0  0
 42 83  1  0  0  0  0
M  END
> <PUBCHEM_COMPOUND_CID>
143436732

> <PUBCHEM_COMPOUND_CANONICALIZED>
1

> <PUBCHEM_CACTVS_COMPLEXITY>
879

> <PUBCHEM_CACTVS_HBOND_ACCEPTOR>
9

> <PUBCHEM_CACTVS_HBOND_DONOR>
4

> <PUBCHEM_CACTVS_ROTATABLE_BOND>
13

> <PUBCHEM_CACTVS_SUBSKEYS>
AAADcfB7uQAAAAAAAAAAAAAAAAAAAWLAAAAwAAAAAAAAAAABwAAAHwAUAAAADSzhng4yjJLQBACpA6XyWgCCAAAmIgAomKG+bNoIZjqAtbOWMYhmlhiI6cc/gAAOAAAAAAAAAAAAAAAAAAAAAAAAAAAAAA==

> <PUBCHEM_IUPAC_OPENEYE_NAME>
ethyl (E)-4-[[2-[[3-methyl-2-[(5-methylisoxazole-3-carbonyl)amino]butanoyl]amino]acetyl]amino]-5-(2-oxopyrrolidin-3-yl)pent-2-enoate;1-fluoro-4-methyl-benzene

> <PUBCHEM_IUPAC_CAS_NAME>
1-fluoro-4-methylbenzene;(E)-4-[[2-[[3-methyl-2-[[(5-methyl-3-isoxazolyl)-oxomethyl]amino]-1-oxobutyl]amino]-1-oxoethyl]amino]-5-(2-oxo-3-pyrrolidinyl)-2-pentenoic acid ethyl ester

> <PUBCHEM_IUPAC_NAME_MARKUP>
ethyl (<I>E</I>)-4-[[2-[[3-methyl-2-[(5-methyl-1,2-oxazole-3-carbonyl)amino]butanoyl]amino]acetyl]amino]-5-(2-oxopyrrolidin-3-yl)pent-2-enoate;1-fluoro-4-methylbenzene

> <PUBCHEM_IUPAC_NAME>
ethyl (E)-4-[[2-[[3-methyl-2-[(5-methyl-1,2-oxazole-3-carbonyl)amino]butanoyl]amino]acetyl]amino]-5-(2-oxopyrrolidin-3-yl)pent-2-enoate;1-fluoro-4-methylbenzene

> <PUBCHEM_IUPAC_SYSTEMATIC_NAME>
ethyl (E)-4-[2-[[3-methyl-2-[(5-methyl-1,2-oxazol-3-yl)carbonylamino]butanoyl]amino]ethanoylamino]-5-(2-oxidanylidenepyrrolidin-3-yl)pent-2-enoate;1-fluoranyl-4-methyl-benzene

> <PUBCHEM_IUPAC_TRADITIONAL_NAME>
1-fluoro-4-methyl-benzene;(E)-5-(2-ketopyrrolidin-3-yl)-4-[[2-[[3-methyl-2-[(5-methylisoxazole-3-carbonyl)amino]butanoyl]amino]acetyl]amino]pent-2-enoic acid ethyl ester

> <PUBCHEM_IUPAC_INCHI>
InChI=1S/C23H33N5O7.C7H7F/c1-5-34-19(30)7-6-16(11-15-8-9-24-21(15)31)26-18(29)12-25-23(33)20(13(2)3)27-22(32)17-10-14(4)35-28-17;1-6-2-4-7(8)5-3-6/h6-7,10,13,15-16,20H,5,8-9,11-12H2,1-4H3,(H,24,31)(H,25,33)(H,26,29)(H,27,32);2-5H,1H3/b7-6+;

> <PUBCHEM_IUPAC_INCHIKEY>
MVPXTHNDHCZYQQ-UHDJGPCESA-N

> <PUBCHEM_EXACT_MASS>
601.291177

> <PUBCHEM_MOLECULAR_FORMULA>
C30H40FN5O7

> <PUBCHEM_MOLECULAR_WEIGHT>
601.7

> <PUBCHEM_OPENEYE_CAN_SMILES>
CCOC(=O)C=CC(CC1CCNC1=O)NC(=O)CNC(=O)C(C(C)C)NC(=O)C2=NOC(=C2)C.CC1=CC=C(C=C1)F

> <PUBCHEM_OPENEYE_ISO_SMILES>
CCOC(=O)/C=C/C(CC1CCNC1=O)NC(=O)CNC(=O)C(C(C)C)NC(=O)C2=NOC(=C2)C.CC1=CC=C(C=C1)F

> <PUBCHEM_CACTVS_TPSA>
169

> <PUBCHEM_MONOISOTOPIC_WEIGHT>
601.291177

> <PUBCHEM_TOTAL_CHARGE>
0

> <PUBCHEM_HEAVY_ATOM_COUNT>
43

> <PUBCHEM_ATOM_DEF_STEREO_COUNT>
0

> <PUBCHEM_ATOM_UDEF_STEREO_COUNT>
3

> <PUBCHEM_BOND_DEF_STEREO_COUNT>
1

> <PUBCHEM_BOND_UDEF_STEREO_COUNT>
0

> <PUBCHEM_ISOTOPIC_ATOM_COUNT>
0

> <PUBCHEM_COMPONENT_COUNT>
2

> <PUBCHEM_CACTVS_TAUTO_COUNT>
-1

> <PUBCHEM_COORDINATE_TYPE>
1
5
255

> <PUBCHEM_BONDANNOTATIONS>
13  31  8
14  16  3
18  16  3
22  23  3
31  33  8
33  34  8
37  38  8
37  39  8
38  41  8
39  42  8
41  43  8
42  43  8
8  13  8
8  34  8

$$$$
143460456
  -OEChem-02212016592D

 89 88  0     1  0  0  0  0  0999 V2000
    8.9778    9.0497    0.0000 O   0  0  0  0  0  0  0  0  0  0  0  0
    8.4734    2.5116    0.0000 O   0  0  0  0  0  0  0  0  0  0  0  0
    5.6203    1.5846    0.0000 O   0  0  0  0  0  0  0  0  0  0  0  0
   11.9504    6.3731    0.0000 O   0  0  0  0  0  0  0  0  0  0  0  0
    8.3540    6.1152    0.0000 O   0  0  0  0  0  0  0  0  0  0  0  0
   11.8309    9.9767    0.0000 O   0  0  0  0  0  0  0  0  0  0  0  0
   15.1432    9.6166    0.0000 O   0  0  0  0  0  0  0  0  0  0  0  0
    8.8893    4.4680    0.0000 N   0  0  0  0  0  0  0  0  0  0  0  0
   10.2562    6.7333    0.0000 N   0  0  0  0  0  0  0  0  0  0  0  0
   12.3662    8.3294    0.0000 N   0  0  0  0  0  0  0  0  0  0  0  0
   14.3342    9.0288    0.0000 N   0  0  0  0  0  0  0  0  0  0  0  0
    7.9382    4.1589    0.0000 C   0  0  1  0  0  0  0  0  0  0  0  0
   11.4151    8.0204    0.0000 C   0  0  1  0  0  0  0  0  0  0  0  0
    7.1951    4.8281    0.0000 C   0  0  0  0  0  0  0  0  0  0  0  0
   10.6720    8.6896    0.0000 C   0  0  0  0  0  0  0  0  0  0  0  0
    7.7303    3.1808    0.0000 C   0  0  0  0  0  0  0  0  0  0  0  0
    6.7792    2.8718    0.0000 C   0  0  0  0  0  0  0  0  0  0  0  0
   11.2072    7.0423    0.0000 C   0  0  0  0  0  0  0  0  0  0  0  0
   10.0482    5.7551    0.0000 C   0  0  0  0  0  0  0  0  0  0  0  0
    9.0972    5.4461    0.0000 C   0  0  0  0  0  0  0  0  0  0  0  0
    6.2440    4.5190    0.0000 C   0  0  0  0  0  0  0  0  0  0  0  0
    9.7209    8.3805    0.0000 C   0  0  0  0  0  0  0  0  0  0  0  0
    6.5713    1.8936    0.0000 C   0  0  0  0  0  0  0  0  0  0  0  0
   12.5741    9.3076    0.0000 C   0  0  0  0  0  0  0  0  0  0  0  0
   13.5252    9.6166    0.0000 C   0  0  0  0  0  0  0  0  0  0  0  0
    8.0267    8.7406    0.0000 C   0  0  0  0  0  0  0  0  0  0  0  0
   13.8342   10.5677    0.0000 C   0  0  0  0  0  0  0  0  0  0  0  0
    5.4124    0.6065    0.0000 C   0  0  0  0  0  0  0  0  0  0  0  0
   14.8342   10.5677    0.0000 C   0  0  0  0  0  0  0  0  0  0  0  0
   10.3647   15.4983    0.0000 C   0  0  0  0  0  0  0  0  0  0  0  0
   15.4220   11.3767    0.0000 C   0  0  0  0  0  0  0  0  0  0  0  0
   11.2308   15.9983    0.0000 C   0  0  0  0  0  0  0  0  0  0  0  0
    9.4987   15.9983    0.0000 C   0  0  0  0  0  0  0  0  0  0  0  0
   10.3647   14.4983    0.0000 C   0  0  0  0  0  0  0  0  0  0  0  0
    1.4030    8.7676    0.0000 C   0  0  0  0  0  0  0  0  0  0  0  0
    2.2690    8.2676    0.0000 C   0  0  0  0  0  0  0  0  0  0  0  0
    0.5369    8.2676    0.0000 C   0  0  0  0  0  0  0  0  0  0  0  0
    1.4030    9.7676    0.0000 C   0  0  0  0  0  0  0  0  0  0  0  0
    2.2690    7.2676    0.0000 C   0  0  0  0  0  0  0  0  0  0  0  0
    0.5369    7.2676    0.0000 C   0  0  0  0  0  0  0  0  0  0  0  0
    1.4030    6.7676    0.0000 C   0  0  0  0  0  0  0  0  0  0  0  0
    8.0671    4.7654    0.0000 H   0  0  0  0  0  0  0  0  0  0  0  0
   11.5440    8.6269    0.0000 H   0  0  0  0  0  0  0  0  0  0  0  0
    7.6836    5.2098    0.0000 H   0  0  0  0  0  0  0  0  0  0  0  0
    6.9040    5.3755    0.0000 H   0  0  0  0  0  0  0  0  0  0  0  0
   11.1605    9.0713    0.0000 H   0  0  0  0  0  0  0  0  0  0  0  0
   10.3809    9.2370    0.0000 H   0  0  0  0  0  0  0  0  0  0  0  0
    9.3500    4.0531    0.0000 H   0  0  0  0  0  0  0  0  0  0  0  0
    6.6930    3.4857    0.0000 H   0  0  0  0  0  0  0  0  0  0  0  0
    6.1596    2.8934    0.0000 H   0  0  0  0  0  0  0  0  0  0  0  0
   10.1345    5.1411    0.0000 H   0  0  0  0  0  0  0  0  0  0  0  0
   10.6679    5.7335    0.0000 H   0  0  0  0  0  0  0  0  0  0  0  0
    9.2324    7.9988    0.0000 H   0  0  0  0  0  0  0  0  0  0  0  0
   10.0120    7.8331    0.0000 H   0  0  0  0  0  0  0  0  0  0  0  0
    6.0524    5.1087    0.0000 H   0  0  0  0  0  0  0  0  0  0  0  0
    5.6544    4.3274    0.0000 H   0  0  0  0  0  0  0  0  0  0  0  0
    6.4356    3.9294    0.0000 H   0  0  0  0  0  0  0  0  0  0  0  0
    9.7954    7.1481    0.0000 H   0  0  0  0  0  0  0  0  0  0  0  0
   12.8269    7.9146    0.0000 H   0  0  0  0  0  0  0  0  0  0  0  0
    6.6576    1.2796    0.0000 H   0  0  0  0  0  0  0  0  0  0  0  0
    7.1910    1.8720    0.0000 H   0  0  0  0  0  0  0  0  0  0  0  0
    7.8351    9.3303    0.0000 H   0  0  0  0  0  0  0  0  0  0  0  0
    7.4371    8.5491    0.0000 H   0  0  0  0  0  0  0  0  0  0  0  0
    8.2183    8.1510    0.0000 H   0  0  0  0  0  0  0  0  0  0  0  0
   13.4697   11.0693    0.0000 H   0  0  0  0  0  0  0  0  0  0  0  0
    4.8059    0.7354    0.0000 H   0  0  0  0  0  0  0  0  0  0  0  0
    5.2835    0.0000    0.0000 H   0  0  0  0  0  0  0  0  0  0  0  0
    6.0188    0.4775    0.0000 H   0  0  0  0  0  0  0  0  0  0  0  0
    9.8278   15.1883    0.0000 H   0  0  0  0  0  0  0  0  0  0  0  0
   15.9235   11.0123    0.0000 H   0  0  0  0  0  0  0  0  0  0  0  0
   15.7864   11.8783    0.0000 H   0  0  0  0  0  0  0  0  0  0  0  0
   14.9204   11.7411    0.0000 H   0  0  0  0  0  0  0  0  0  0  0  0
   11.5408   15.4613    0.0000 H   0  0  0  0  0  0  0  0  0  0  0  0
   11.7677   16.3083    0.0000 H   0  0  0  0  0  0  0  0  0  0  0  0
   10.9208   16.5352    0.0000 H   0  0  0  0  0  0  0  0  0  0  0  0
    9.8087   16.5352    0.0000 H   0  0  0  0  0  0  0  0  0  0  0  0
    8.9618   16.3083    0.0000 H   0  0  0  0  0  0  0  0  0  0  0  0
    9.1887   15.4613    0.0000 H   0  0  0  0  0  0  0  0  0  0  0  0
    9.7447   14.4983    0.0000 H   0  0  0  0  0  0  0  0  0  0  0  0
   10.3647   13.8783    0.0000 H   0  0  0  0  0  0  0  0  0  0  0  0
   10.9847   14.4983    0.0000 H   0  0  0  0  0  0  0  0  0  0  0  0
    2.8059    8.5776    0.0000 H   0  0  0  0  0  0  0  0  0  0  0  0
    0.0000    8.5776    0.0000 H   0  0  0  0  0  0  0  0  0  0  0  0
    2.0230    9.7676    0.0000 H   0  0  0  0  0  0  0  0  0  0  0  0
    1.4030   10.3876    0.0000 H   0  0  0  0  0  0  0  0  0  0  0  0
    0.7830    9.7676    0.0000 H   0  0  0  0  0  0  0  0  0  0  0  0
    2.8059    6.9576    0.0000 H   0  0  0  0  0  0  0  0  0  0  0  0
    0.0000    6.9576    0.0000 H   0  0  0  0  0  0  0  0  0  0  0  0
    1.4030    6.1476    0.0000 H   0  0  0  0  0  0  0  0  0  0  0  0
  1 22  1  0  0  0  0
  1 26  1  0  0  0  0
  2 16  2  0  0  0  0
  3 23  1  0  0  0  0
  3 28  1  0  0  0  0
  4 18  2  0  0  0  0
  5 20  2  0  0  0  0
  6 24  2  0  0  0  0
  7 11  1  0  0  0  0
  7 29  1  0  0  0  0
 12  8  1  6  0  0  0
  8 20  1  0  0  0  0
  8 48  1  0  0  0  0
  9 18  1  0  0  0  0
  9 19  1  0  0  0  0
  9 58  1  0  0  0  0
 13 10  1  6  0  0  0
 10 24  1  0  0  0  0
 10 59  1  0  0  0  0
 11 25  2  0  0  0  0
 12 14  1  0  0  0  0
 12 16  1  0  0  0  0
 12 42  1  0  0  0  0
 13 15  1  0  0  0  0
 13 18  1  0  0  0  0
 13 43  1  0  0  0  0
 14 21  1  0  0  0  0
 14 44  1  0  0  0  0
 14 45  1  0  0  0  0
 15 22  1  0  0  0  0
 15 46  1  0  0  0  0
 15 47  1  0  0  0  0
 16 17  1  0  0  0  0
 17 23  1  0  0  0  0
 17 49  1  0  0  0  0
 17 50  1  0  0  0  0
 19 20  1  0  0  0  0
 19 51  1  0  0  0  0
 19 52  1  0  0  0  0
 21 55  1  0  0  0  0
 21 56  1  0  0  0  0
 21 57  1  0  0  0  0
 22 53  1  0  0  0  0
 22 54  1  0  0  0  0
 23 60  1  0  0  0  0
 23 61  1  0  0  0  0
 24 25  1  0  0  0  0
 25 27  1  0  0  0  0
 26 62  1  0  0  0  0
 26 63  1  0  0  0  0
 26 64  1  0  0  0  0
 27 29  2  0  0  0  0
 27 65  1  0  0  0  0
 28 66  1  0  0  0  0
 28 67  1  0  0  0  0
 28 68  1  0  0  0  0
 29 31  1  0  0  0  0
 30 32  1  0  0  0  0
 30 33  1  0  0  0  0
 30 34  1  0  0  0  0
 30 69  1  0  0  0  0
 31 70  1  0  0  0  0
 31 71  1  0  0  0  0
 31 72  1  0  0  0  0
 32 73  1  0  0  0  0
 32 74  1  0  0  0  0
 32 75  1  0  0  0  0
 33 76  1  0  0  0  0
 33 77  1  0  0  0  0
 33 78  1  0  0  0  0
 34 79  1  0  0  0  0
 34 80  1  0  0  0  0
 34 81  1  0  0  0  0
 35 36  2  0  0  0  0
 35 37  1  0  0  0  0
 35 38  1  0  0  0  0
 36 39  1  0  0  0  0
 36 82  1  0  0  0  0
 37 40  2  0  0  0  0
 37 83  1  0  0  0  0
 38 84  1  0  0  0  0
 38 85  1  0  0  0  0
 38 86  1  0  0  0  0
 39 41  2  0  0  0  0
 39 87  1  0  0  0  0
 40 41  1  0  0  0  0
 40 88  1  0  0  0  0
 41 89  1  0  0  0  0
M  END
> <PUBCHEM_COMPOUND_CID>
143460456

> <PUBCHEM_COMPOUND_CANONICALIZED>
1

> <PUBCHEM_CACTVS_COMPLEXITY>
634

> <PUBCHEM_CACTVS_HBOND_ACCEPTOR>
8

> <PUBCHEM_CACTVS_HBOND_DONOR>
3

> <PUBCHEM_CACTVS_ROTATABLE_BOND>
14

> <PUBCHEM_CACTVS_SUBSKEYS>
AAADcfB7uAAAAAAAAAAAAAAAAAAAAWAAAAAwAAAAAAAAAAABwAAAHgAUAAAADSzhngYyhJLQBACpA6VyUgCCAAAmIgAomKG+bNoIZj6AlbOUMYhmthiIyce/wAAOAAAAAAAAAAAAAAAAAAAAAAAAAAAAAA==

> <PUBCHEM_IUPAC_OPENEYE_NAME>
N-[(1S)-1-[[2-[[(1S)-1-ethyl-4-methoxy-2-oxo-butyl]amino]-2-oxo-ethyl]carbamoyl]-3-methoxy-propyl]-5-methyl-isoxazole-3-carboxamide;isobutane;toluene

> <PUBCHEM_IUPAC_CAS_NAME>
N-[(2S)-4-methoxy-1-[[2-[[(3S)-6-methoxy-4-oxohexan-3-yl]amino]-2-oxoethyl]amino]-1-oxobutan-2-yl]-5-methyl-3-isoxazolecarboxamide;2-methylpropane;toluene

> <PUBCHEM_IUPAC_NAME_MARKUP>
<I>N</I>-[(2<I>S</I>)-4-methoxy-1-[[2-[[(3<I>S</I>)-6-methoxy-4-oxohexan-3-yl]amino]-2-oxoethyl]amino]-1-oxobutan-2-yl]-5-methyl-1,2-oxazole-3-carboxamide;2-methylpropane;toluene

> <PUBCHEM_IUPAC_NAME>
N-[(2S)-4-methoxy-1-[[2-[[(3S)-6-methoxy-4-oxohexan-3-yl]amino]-2-oxoethyl]amino]-1-oxobutan-2-yl]-5-methyl-1,2-oxazole-3-carboxamide;2-methylpropane;toluene

> <PUBCHEM_IUPAC_SYSTEMATIC_NAME>
N-[(2S)-4-methoxy-1-[[2-[[(3S)-6-methoxy-4-oxidanylidene-hexan-3-yl]amino]-2-oxidanylidene-ethyl]amino]-1-oxidanylidene-butan-2-yl]-5-methyl-1,2-oxazole-3-carboxamide;methylbenzene;2-methylpropane

> <PUBCHEM_IUPAC_TRADITIONAL_NAME>
N-[(1S)-1-[[2-[[(1S)-1-ethyl-2-keto-4-methoxy-butyl]amino]-2-keto-ethyl]carbamoyl]-3-methoxy-propyl]-5-methyl-isoxazole-3-carboxamide;isobutane;toluene

> <PUBCHEM_IUPAC_INCHI>
InChI=1S/C19H30N4O7.C7H8.C4H10/c1-5-13(16(24)7-9-29-4)21-17(25)11-20-18(26)14(6-8-28-3)22-19(27)15-10-12(2)30-23-15;1-7-5-3-2-4-6-7;1-4(2)3/h10,13-14H,5-9,11H2,1-4H3,(H,20,26)(H,21,25)(H,22,27);2-6H,1H3;4H,1-3H3/t13-,14-;;/m0../s1

> <PUBCHEM_IUPAC_INCHIKEY>
ZEECVIOVTQYBGY-AXEKQOJOSA-N

> <PUBCHEM_EXACT_MASS>
576.3523

> <PUBCHEM_MOLECULAR_FORMULA>
C30H48N4O7

> <PUBCHEM_MOLECULAR_WEIGHT>
576.7

> <PUBCHEM_OPENEYE_CAN_SMILES>
CCC(C(=O)CCOC)NC(=O)CNC(=O)C(CCOC)NC(=O)C1=NOC(=C1)C.CC1=CC=CC=C1.CC(C)C

> <PUBCHEM_OPENEYE_ISO_SMILES>
CC[C@@H](C(=O)CCOC)NC(=O)CNC(=O)[C@H](CCOC)NC(=O)C1=NOC(=C1)C.CC1=CC=CC=C1.CC(C)C

> <PUBCHEM_CACTVS_TPSA>
149

> <PUBCHEM_MONOISOTOPIC_WEIGHT>
576.3523

> <PUBCHEM_TOTAL_CHARGE>
0

> <PUBCHEM_HEAVY_ATOM_COUNT>
41

> <PUBCHEM_ATOM_DEF_STEREO_COUNT>
2

> <PUBCHEM_ATOM_UDEF_STEREO_COUNT>
0

> <PUBCHEM_BOND_DEF_STEREO_COUNT>
0

> <PUBCHEM_BOND_UDEF_STEREO_COUNT>
0

> <PUBCHEM_ISOTOPIC_ATOM_COUNT>
0

> <PUBCHEM_COMPONENT_COUNT>
3

> <PUBCHEM_CACTVS_TAUTO_COUNT>
-1

> <PUBCHEM_COORDINATE_TYPE>
1
5
255

> <PUBCHEM_BONDANNOTATIONS>
13  10  6
11  25  8
25  27  8
27  29  8
35  36  8
35  37  8
36  39  8
37  40  8
39  41  8
40  41  8
7  11  8
7  29  8
12  8  6

$$$$
145270533
  -OEChem-02212016592D

 51 52  0     0  0  0  0  0  0999 V2000
    8.0928    9.4130    0.0000 O   0  0  0  0  0  0  0  0  0  0  0  0
    4.8339    4.2078    0.0000 O   0  0  0  0  0  0  0  0  0  0  0  0
    8.4589   12.4518    0.0000 O   0  0  0  0  0  0  0  0  0  0  0  0
    7.7253    5.8633    0.0000 O   0  0  0  0  0  0  0  0  0  0  0  0
    6.7268   12.4518    0.0000 O   0  0  0  0  0  0  0  0  0  0  0  0
    6.3240    6.8814    0.0000 N   0  0  0  0  0  0  0  0  0  0  0  0
    8.4019   10.3640    0.0000 N   0  0  0  0  0  0  0  0  0  0  0  0
    5.1430    5.1588    0.0000 N   0  0  0  0  0  0  0  0  0  0  0  0
    6.5051    8.6040    0.0000 C   0  0  0  0  0  0  0  0  0  0  0  0
    6.9118    7.6904    0.0000 C   0  0  0  0  0  0  0  0  0  0  0  0
    7.0928    9.4130    0.0000 C   0  0  0  0  0  0  0  0  0  0  0  0
    6.7838   10.3640    0.0000 C   0  0  0  0  0  0  0  0  0  0  0  0
    6.7308    5.9679    0.0000 C   0  0  0  0  0  0  0  0  0  0  0  0
    6.1430    5.1588    0.0000 C   0  0  0  0  0  0  0  0  0  0  0  0
    7.5928   10.9518    0.0000 C   0  0  0  0  0  0  0  0  0  0  0  0
    5.6430    3.6200    0.0000 C   0  0  0  0  0  0  0  0  0  0  0  0
    6.4520    4.2078    0.0000 C   0  0  0  0  0  0  0  0  0  0  0  0
    5.6430    2.6200    0.0000 C   0  0  0  0  0  0  0  0  0  0  0  0
    6.5090    2.1200    0.0000 C   0  0  0  0  0  0  0  0  0  0  0  0
    4.7769    2.1200    0.0000 C   0  0  0  0  0  0  0  0  0  0  0  0
    7.5928   11.9518    0.0000 C   0  0  0  0  0  0  0  0  0  0  0  0
    6.5090    1.1200    0.0000 C   0  0  0  0  0  0  0  0  0  0  0  0
    4.7769    1.1200    0.0000 C   0  0  0  0  0  0  0  0  0  0  0  0
    5.6430    0.6200    0.0000 C   0  0  0  0  0  0  0  0  0  0  0  0
    8.4589   13.4518    0.0000 C   0  0  0  0  0  0  0  0  0  0  0  0
    9.3249   13.9518    0.0000 C   0  0  0  0  0  0  0  0  0  0  0  0
    0.6200    7.2444    0.0000 C   0  0  0  0  0  0  0  0  0  0  0  0
    1.6200    7.2444    0.0000 C   0  0  0  0  0  0  0  0  0  0  0  0
    6.0744    9.0500    0.0000 H   0  0  0  0  0  0  0  0  0  0  0  0
    5.9911    8.2573    0.0000 H   0  0  0  0  0  0  0  0  0  0  0  0
    7.3425    7.2444    0.0000 H   0  0  0  0  0  0  0  0  0  0  0  0
    7.4258    8.0371    0.0000 H   0  0  0  0  0  0  0  0  0  0  0  0
    5.7074    6.9462    0.0000 H   0  0  0  0  0  0  0  0  0  0  0  0
    6.1942   10.5556    0.0000 H   0  0  0  0  0  0  0  0  0  0  0  0
    7.0416    4.0162    0.0000 H   0  0  0  0  0  0  0  0  0  0  0  0
    7.0459    2.4300    0.0000 H   0  0  0  0  0  0  0  0  0  0  0  0
    4.2400    2.4300    0.0000 H   0  0  0  0  0  0  0  0  0  0  0  0
    7.0459    0.8100    0.0000 H   0  0  0  0  0  0  0  0  0  0  0  0
    4.2400    0.8100    0.0000 H   0  0  0  0  0  0  0  0  0  0  0  0
    5.6430    0.0000    0.0000 H   0  0  0  0  0  0  0  0  0  0  0  0
    8.2468   14.0344    0.0000 H   0  0  0  0  0  0  0  0  0  0  0  0
    7.8483   13.3442    0.0000 H   0  0  0  0  0  0  0  0  0  0  0  0
    9.6349   13.4149    0.0000 H   0  0  0  0  0  0  0  0  0  0  0  0
    9.8618   14.2618    0.0000 H   0  0  0  0  0  0  0  0  0  0  0  0
    9.0149   14.4888    0.0000 H   0  0  0  0  0  0  0  0  0  0  0  0
    0.6200    7.8644    0.0000 H   0  0  0  0  0  0  0  0  0  0  0  0
    0.0000    7.2444    0.0000 H   0  0  0  0  0  0  0  0  0  0  0  0
    0.6200    6.6244    0.0000 H   0  0  0  0  0  0  0  0  0  0  0  0
    1.6200    6.6244    0.0000 H   0  0  0  0  0  0  0  0  0  0  0  0
    2.2400    7.2444    0.0000 H   0  0  0  0  0  0  0  0  0  0  0  0
    1.6200    7.8644    0.0000 H   0  0  0  0  0  0  0  0  0  0  0  0
  1  7  1  0  0  0  0
  1 11  1  0  0  0  0
  2  8  1  0  0  0  0
  2 16  1  0  0  0  0
  3 21  1  0  0  0  0
  3 25  1  0  0  0  0
  4 13  2  0  0  0  0
  5 21  2  0  0  0  0
  6 10  1  0  0  0  0
  6 13  1  0  0  0  0
  6 33  1  0  0  0  0
  7 15  2  0  0  0  0
  8 14  2  0  0  0  0
  9 10  1  0  0  0  0
  9 11  1  0  0  0  0
  9 29  1  0  0  0  0
  9 30  1  0  0  0  0
 10 31  1  0  0  0  0
 10 32  1  0  0  0  0
 11 12  2  0  0  0  0
 12 15  1  0  0  0  0
 12 34  1  0  0  0  0
 13 14  1  0  0  0  0
 14 17  1  0  0  0  0
 15 21  1  0  0  0  0
 16 17  2  0  0  0  0
 16 18  1  0  0  0  0
 17 35  1  0  0  0  0
 18 19  2  0  0  0  0
 18 20  1  0  0  0  0
 19 22  1  0  0  0  0
 19 36  1  0  0  0  0
 20 23  2  0  0  0  0
 20 37  1  0  0  0  0
 22 24  2  0  0  0  0
 22 38  1  0  0  0  0
 23 24  1  0  0  0  0
 23 39  1  0  0  0  0
 24 40  1  0  0  0  0
 25 26  1  0  0  0  0
 25 41  1  0  0  0  0
 25 42  1  0  0  0  0
 26 43  1  0  0  0  0
 26 44  1  0  0  0  0
 26 45  1  0  0  0  0
 27 28  1  0  0  0  0
 27 46  1  0  0  0  0
 27 47  1  0  0  0  0
 27 48  1  0  0  0  0
 28 49  1  0  0  0  0
 28 50  1  0  0  0  0
 28 51  1  0  0  0  0
M  END
> <PUBCHEM_COMPOUND_CID>
145270533

> <PUBCHEM_COMPOUND_CANONICALIZED>
1

> <PUBCHEM_CACTVS_COMPLEXITY>
483

> <PUBCHEM_CACTVS_HBOND_ACCEPTOR>
7

> <PUBCHEM_CACTVS_HBOND_DONOR>
1

> <PUBCHEM_CACTVS_ROTATABLE_BOND>
8

> <PUBCHEM_CACTVS_SUBSKEYS>
AAADceB7OAAAAAAAAAAAAAAAAAAAAWLAAAAwAAAAAAAAAAAB8AAAHgAUAAAADAzhngYyjJLQBACpA6XyWgSCAAAmIgAomKG+bNoKZjqAtZuXMYhm1hmI6cf/yKCOAAAAAAAAAAAAAAAAAAAAAAAAAAAAAA==

> <PUBCHEM_IUPAC_OPENEYE_NAME>
ethane;ethyl 5-[2-[(5-phenylisoxazole-3-carbonyl)amino]ethyl]isoxazole-3-carboxylate

> <PUBCHEM_IUPAC_CAS_NAME>
ethane;5-[2-[[oxo-(5-phenyl-3-isoxazolyl)methyl]amino]ethyl]-3-isoxazolecarboxylic acid ethyl ester

> <PUBCHEM_IUPAC_NAME_MARKUP>
ethane;ethyl 5-[2-[(5-phenyl-1,2-oxazole-3-carbonyl)amino]ethyl]-1,2-oxazole-3-carboxylate

> <PUBCHEM_IUPAC_NAME>
ethane;ethyl 5-[2-[(5-phenyl-1,2-oxazole-3-carbonyl)amino]ethyl]-1,2-oxazole-3-carboxylate

> <PUBCHEM_IUPAC_SYSTEMATIC_NAME>
ethane;ethyl 5-[2-[(5-phenyl-1,2-oxazol-3-yl)carbonylamino]ethyl]-1,2-oxazole-3-carboxylate

> <PUBCHEM_IUPAC_TRADITIONAL_NAME>
ethane;5-[2-[(5-phenylisoxazole-3-carbonyl)amino]ethyl]isoxazole-3-carboxylic acid ethyl ester

> <PUBCHEM_IUPAC_INCHI>
InChI=1S/C18H17N3O5.C2H6/c1-2-24-18(23)15-10-13(25-21-15)8-9-19-17(22)14-11-16(26-20-14)12-6-4-3-5-7-12;1-2/h3-7,10-11H,2,8-9H2,1H3,(H,19,22);1-2H3

> <PUBCHEM_IUPAC_INCHIKEY>
OGCMOKSTXGJETG-UHFFFAOYSA-N

> <PUBCHEM_EXACT_MASS>
385.163771

> <PUBCHEM_MOLECULAR_FORMULA>
C20H23N3O5

> <PUBCHEM_MOLECULAR_WEIGHT>
385.4

> <PUBCHEM_OPENEYE_CAN_SMILES>
CC.CCOC(=O)C1=NOC(=C1)CCNC(=O)C2=NOC(=C2)C3=CC=CC=C3

> <PUBCHEM_OPENEYE_ISO_SMILES>
CC.CCOC(=O)C1=NOC(=C1)CCNC(=O)C2=NOC(=C2)C3=CC=CC=C3

> <PUBCHEM_CACTVS_TPSA>
108

> <PUBCHEM_MONOISOTOPIC_WEIGHT>
385.163771

> <PUBCHEM_TOTAL_CHARGE>
0

> <PUBCHEM_HEAVY_ATOM_COUNT>
28

> <PUBCHEM_ATOM_DEF_STEREO_COUNT>
0

> <PUBCHEM_ATOM_UDEF_STEREO_COUNT>
0

> <PUBCHEM_BOND_DEF_STEREO_COUNT>
0

> <PUBCHEM_BOND_UDEF_STEREO_COUNT>
0

> <PUBCHEM_ISOTOPIC_ATOM_COUNT>
0

> <PUBCHEM_COMPONENT_COUNT>
2

> <PUBCHEM_CACTVS_TAUTO_COUNT>
-1

> <PUBCHEM_COORDINATE_TYPE>
1
5
255

> <PUBCHEM_BONDANNOTATIONS>
1  11  8
1  7  8
11  12  8
12  15  8
14  17  8
16  17  8
18  19  8
18  20  8
19  22  8
2  16  8
2  8  8
20  23  8
22  24  8
23  24  8
7  15  8
8  14  8

$$$$
145297173
  -OEChem-02212016592D

 55 55  0     0  0  0  0  0  0999 V2000
    3.1350    4.4847    0.0000 O   0  0  0  0  0  0  0  0  0  0  0  0
    8.8070    4.1200    0.0000 O   0  0  0  0  0  0  0  0  0  0  0  0
   10.0390    9.6588    0.0000 O   0  0  0  0  0  0  0  0  0  0  0  0
    7.9409    5.6200    0.0000 O   0  0  0  0  0  0  0  0  0  0  0  0
   11.4050    6.6200    0.0000 O   0  0  0  0  0  0  0  0  0  0  0  0
    2.2690    5.9847    0.0000 N   0  0  0  0  0  0  0  0  0  0  0  0
    9.6730    6.6200    0.0000 N   0  0  0  0  0  0  0  0  0  0  0  0
    9.7300    8.7078    0.0000 N   0  0  0  0  0  0  0  0  0  0  0  0
    1.4030    5.4847    0.0000 C   0  0  0  0  0  0  0  0  0  0  0  0
    0.5369    4.9847    0.0000 C   0  0  0  0  0  0  0  0  0  0  0  0
    0.9030    6.3508    0.0000 C   0  0  0  0  0  0  0  0  0  0  0  0
    1.9030    4.6187    0.0000 C   0  0  0  0  0  0  0  0  0  0  0  0
    3.1350    5.4847    0.0000 C   0  0  0  0  0  0  0  0  0  0  0  0
    4.0010    5.9847    0.0000 C   0  0  0  0  0  0  0  0  0  0  0  0
    7.9409    2.6200    0.0000 C   0  0  0  0  0  0  0  0  0  0  0  0
    7.9409    3.6200    0.0000 C   0  0  0  0  0  0  0  0  0  0  0  0
    9.6730    5.6200    0.0000 C   0  0  0  0  0  0  0  0  0  0  0  0
    8.8070    2.1200    0.0000 C   0  0  0  0  0  0  0  0  0  0  0  0
    7.0749    2.1200    0.0000 C   0  0  0  0  0  0  0  0  0  0  0  0
    8.8070    5.1200    0.0000 C   0  0  0  0  0  0  0  0  0  0  0  0
   10.5390    8.1200    0.0000 C   0  0  0  0  0  0  0  0  0  0  0  0
   10.5390    7.1200    0.0000 C   0  0  0  0  0  0  0  0  0  0  0  0
    8.8070    1.1200    0.0000 C   0  0  0  0  0  0  0  0  0  0  0  0
    7.0749    1.1200    0.0000 C   0  0  0  0  0  0  0  0  0  0  0  0
    7.9409    0.6200    0.0000 C   0  0  0  0  0  0  0  0  0  0  0  0
   11.3480    8.7078    0.0000 C   0  0  0  0  0  0  0  0  0  0  0  0
   11.0390    9.6588    0.0000 C   0  0  0  0  0  0  0  0  0  0  0  0
   11.6268   10.4679    0.0000 C   0  0  0  0  0  0  0  0  0  0  0  0
    0.2269    5.5217    0.0000 H   0  0  0  0  0  0  0  0  0  0  0  0
    0.0000    4.6747    0.0000 H   0  0  0  0  0  0  0  0  0  0  0  0
    0.8469    4.4478    0.0000 H   0  0  0  0  0  0  0  0  0  0  0  0
    1.4399    6.6608    0.0000 H   0  0  0  0  0  0  0  0  0  0  0  0
    0.5930    6.8877    0.0000 H   0  0  0  0  0  0  0  0  0  0  0  0
    0.3660    6.0408    0.0000 H   0  0  0  0  0  0  0  0  0  0  0  0
    1.3660    4.3087    0.0000 H   0  0  0  0  0  0  0  0  0  0  0  0
    2.2130    4.0818    0.0000 H   0  0  0  0  0  0  0  0  0  0  0  0
    2.4399    4.9287    0.0000 H   0  0  0  0  0  0  0  0  0  0  0  0
    2.2690    6.6047    0.0000 H   0  0  0  0  0  0  0  0  0  0  0  0
    4.3110    5.4478    0.0000 H   0  0  0  0  0  0  0  0  0  0  0  0
    4.5380    6.2947    0.0000 H   0  0  0  0  0  0  0  0  0  0  0  0
    3.6910    6.5217    0.0000 H   0  0  0  0  0  0  0  0  0  0  0  0
    7.7289    4.2026    0.0000 H   0  0  0  0  0  0  0  0  0  0  0  0
    7.3304    3.5123    0.0000 H   0  0  0  0  0  0  0  0  0  0  0  0
    9.8850    5.0374    0.0000 H   0  0  0  0  0  0  0  0  0  0  0  0
   10.2836    5.7277    0.0000 H   0  0  0  0  0  0  0  0  0  0  0  0
    9.3439    2.4300    0.0000 H   0  0  0  0  0  0  0  0  0  0  0  0
    6.5380    2.4300    0.0000 H   0  0  0  0  0  0  0  0  0  0  0  0
    9.1360    6.9300    0.0000 H   0  0  0  0  0  0  0  0  0  0  0  0
    9.3439    0.8100    0.0000 H   0  0  0  0  0  0  0  0  0  0  0  0
    6.5380    0.8100    0.0000 H   0  0  0  0  0  0  0  0  0  0  0  0
    7.9409    0.0000    0.0000 H   0  0  0  0  0  0  0  0  0  0  0  0
   11.9377    8.5162    0.0000 H   0  0  0  0  0  0  0  0  0  0  0  0
   12.1284   10.1034    0.0000 H   0  0  0  0  0  0  0  0  0  0  0  0
   11.9912   10.9694    0.0000 H   0  0  0  0  0  0  0  0  0  0  0  0
   11.1252   10.8323    0.0000 H   0  0  0  0  0  0  0  0  0  0  0  0
  1 13  2  0  0  0  0
  2 16  1  0  0  0  0
  2 20  1  0  0  0  0
  3  8  1  0  0  0  0
  3 27  1  0  0  0  0
  4 20  2  0  0  0  0
  5 22  2  0  0  0  0
  6  9  1  0  0  0  0
  6 13  1  0  0  0  0
  6 38  1  0  0  0  0
  7 17  1  0  0  0  0
  7 22  1  0  0  0  0
  7 48  1  0  0  0  0
  8 21  2  0  0  0  0
  9 10  1  0  0  0  0
  9 11  1  0  0  0  0
  9 12  1  0  0  0  0
 10 29  1  0  0  0  0
 10 30  1  0  0  0  0
 10 31  1  0  0  0  0
 11 32  1  0  0  0  0
 11 33  1  0  0  0  0
 11 34  1  0  0  0  0
 12 35  1  0  0  0  0
 12 36  1  0  0  0  0
 12 37  1  0  0  0  0
 13 14  1  0  0  0  0
 14 39  1  0  0  0  0
 14 40  1  0  0  0  0
 14 41  1  0  0  0  0
 15 16  1  0  0  0  0
 15 18  2  0  0  0  0
 15 19  1  0  0  0  0
 16 42  1  0  0  0  0
 16 43  1  0  0  0  0
 17 20  1  0  0  0  0
 17 44  1  0  0  0  0
 17 45  1  0  0  0  0
 18 23  1  0  0  0  0
 18 46  1  0  0  0  0
 19 24  2  0  0  0  0
 19 47  1  0  0  0  0
 21 22  1  0  0  0  0
 21 26  1  0  0  0  0
 23 25  2  0  0  0  0
 23 49  1  0  0  0  0
 24 25  1  0  0  0  0
 24 50  1  0  0  0  0
 25 51  1  0  0  0  0
 26 27  2  0  0  0  0
 26 52  1  0  0  0  0
 27 28  1  0  0  0  0
 28 53  1  0  0  0  0
 28 54  1  0  0  0  0
 28 55  1  0  0  0  0
M  END
> <PUBCHEM_COMPOUND_CID>
145297173

> <PUBCHEM_COMPOUND_CANONICALIZED>
1

> <PUBCHEM_CACTVS_COMPLEXITY>
433

> <PUBCHEM_CACTVS_HBOND_ACCEPTOR>
6

> <PUBCHEM_CACTVS_HBOND_DONOR>
2

> <PUBCHEM_CACTVS_ROTATABLE_BOND>
7

> <PUBCHEM_CACTVS_SUBSKEYS>
AAADceB7OAAAAAAAAAAAAAAAAAAAAWAAAAAwAAAAAAAAAAABwAAAHgAUAAAADIzhngYyjJLQBACpA6XyWgCCAAAmIgAomKG+bNoKZjqAtbuXMYhm1hmY6ce/wCAOAAAAAAAAAAAAAAAAAAAAAAAAAAAAAA==

> <PUBCHEM_IUPAC_OPENEYE_NAME>
benzyl 2-[(5-methylisoxazole-3-carbonyl)amino]acetate;N-tert-butylacetamide

> <PUBCHEM_IUPAC_CAS_NAME>
N-tert-butylacetamide;2-[[(5-methyl-3-isoxazolyl)-oxomethyl]amino]acetic acid (phenylmethyl) ester

> <PUBCHEM_IUPAC_NAME_MARKUP>
benzyl 2-[(5-methyl-1,2-oxazole-3-carbonyl)amino]acetate;<I>N</I>-<I>tert</I>-butylacetamide

> <PUBCHEM_IUPAC_NAME>
benzyl 2-[(5-methyl-1,2-oxazole-3-carbonyl)amino]acetate;N-tert-butylacetamide

> <PUBCHEM_IUPAC_SYSTEMATIC_NAME>
N-tert-butylethanamide;(phenylmethyl) 2-[(5-methyl-1,2-oxazol-3-yl)carbonylamino]ethanoate

> <PUBCHEM_IUPAC_TRADITIONAL_NAME>
N-tert-butylacetamide;2-[(5-methylisoxazole-3-carbonyl)amino]acetic acid benzyl ester

> <PUBCHEM_IUPAC_INCHI>
InChI=1S/C14H14N2O4.C6H13NO/c1-10-7-12(16-20-10)14(18)15-8-13(17)19-9-11-5-3-2-4-6-11;1-5(8)7-6(2,3)4/h2-7H,8-9H2,1H3,(H,15,18);1-4H3,(H,7,8)

> <PUBCHEM_IUPAC_INCHIKEY>
LHCAWEHCWSUKFB-UHFFFAOYSA-N

> <PUBCHEM_EXACT_MASS>
389.195071

> <PUBCHEM_MOLECULAR_FORMULA>
C20H27N3O5

> <PUBCHEM_MOLECULAR_WEIGHT>
389.4

> <PUBCHEM_OPENEYE_CAN_SMILES>
CC1=CC(=NO1)C(=O)NCC(=O)OCC2=CC=CC=C2.CC(=O)NC(C)(C)C

> <PUBCHEM_OPENEYE_ISO_SMILES>
CC1=CC(=NO1)C(=O)NCC(=O)OCC2=CC=CC=C2.CC(=O)NC(C)(C)C

> <PUBCHEM_CACTVS_TPSA>
111

> <PUBCHEM_MONOISOTOPIC_WEIGHT>
389.195071

> <PUBCHEM_TOTAL_CHARGE>
0

> <PUBCHEM_HEAVY_ATOM_COUNT>
28

> <PUBCHEM_ATOM_DEF_STEREO_COUNT>
0

> <PUBCHEM_ATOM_UDEF_STEREO_COUNT>
0

> <PUBCHEM_BOND_DEF_STEREO_COUNT>
0

> <PUBCHEM_BOND_UDEF_STEREO_COUNT>
0

> <PUBCHEM_ISOTOPIC_ATOM_COUNT>
0

> <PUBCHEM_COMPONENT_COUNT>
2

> <PUBCHEM_CACTVS_TAUTO_COUNT>
-1

> <PUBCHEM_COORDINATE_TYPE>
1
5
255

> <PUBCHEM_BONDANNOTATIONS>
15  18  8
15  19  8
18  23  8
19  24  8
21  26  8
23  25  8
24  25  8
26  27  8
3  27  8
3  8  8
8  21  8

$$$$
145514762
  -OEChem-02212016592D

 52 54  0     1  0  0  0  0  0999 V2000
    4.9641    4.3080    0.0000 O   0  0  0  0  0  0  0  0  0  0  0  0
    6.3301    0.9420    0.0000 O   0  0  0  0  0  0  0  0  0  0  0  0
    7.1962    1.4420    0.0000 O   0  0  0  0  0  0  0  0  0  0  0  0
    3.7320   -1.5580    0.0000 O   0  0  0  0  0  0  0  0  0  0  0  0
    9.6448    3.2784    0.0000 O   0  0  0  0  0  0  0  0  0  0  0  0
    2.8660   -0.0580    0.0000 O   0  0  0  0  0  0  0  0  0  0  0  0
    6.3301    2.9420    0.0000 N   0  0  0  0  0  0  0  0  0  0  0  0
    4.5981    0.9420    0.0000 N   0  0  0  0  0  0  0  0  0  0  0  0
    8.9757    2.5353    0.0000 N   0  0  0  0  0  0  0  0  0  0  0  0
    5.4641    2.4420    0.0000 C   0  0  3  0  0  0  0  0  0  0  0  0
    4.9641    3.3080    0.0000 C   0  0  3  0  0  0  0  0  0  0  0  0
    4.4641    2.4420    0.0000 C   0  0  0  0  0  0  0  0  0  0  0  0
    5.4641    1.4420    0.0000 C   0  0  0  0  0  0  0  0  0  0  0  0
    7.1962    2.4420    0.0000 C   0  0  0  0  0  0  0  0  0  0  0  0
    4.0981    4.8080    0.0000 C   0  0  0  0  0  0  0  0  0  0  0  0
    4.5981   -0.0580    0.0000 C   0  0  1  0  0  0  0  0  0  0  0  0
    8.0622    2.9420    0.0000 C   0  0  0  0  0  0  0  0  0  0  0  0
    5.4641   -0.5580    0.0000 C   0  0  0  0  0  0  0  0  0  0  0  0
    3.7320   -0.5580    0.0000 C   0  0  0  0  0  0  0  0  0  0  0  0
    8.1667    3.9365    0.0000 C   0  0  0  0  0  0  0  0  0  0  0  0
    9.1448    4.1444    0.0000 C   0  0  0  0  0  0  0  0  0  0  0  0
    2.8660   -2.0580    0.0000 C   0  0  0  0  0  0  0  0  0  0  0  0
    9.5516    5.0580    0.0000 C   0  0  0  0  0  0  0  0  0  0  0  0
    2.8660   -3.0580    0.0000 C   0  0  0  0  0  0  0  0  0  0  0  0
    2.0000   -3.5580    0.0000 C   0  0  0  0  0  0  0  0  0  0  0  0
    3.7320   -3.5580    0.0000 C   0  0  0  0  0  0  0  0  0  0  0  0
    2.0000   -4.5580    0.0000 C   0  0  0  0  0  0  0  0  0  0  0  0
    3.7320   -4.5580    0.0000 C   0  0  0  0  0  0  0  0  0  0  0  0
    2.8660   -5.0580    0.0000 C   0  0  0  0  0  0  0  0  0  0  0  0
    5.5630    3.4685    0.0000 H   0  0  0  0  0  0  0  0  0  0  0  0
    3.8815    2.6541    0.0000 H   0  0  0  0  0  0  0  0  0  0  0  0
    4.3564    1.8314    0.0000 H   0  0  0  0  0  0  0  0  0  0  0  0
    6.3301    3.5620    0.0000 H   0  0  0  0  0  0  0  0  0  0  0  0
    4.0611    1.2520    0.0000 H   0  0  0  0  0  0  0  0  0  0  0  0
    4.4081    5.3450    0.0000 H   0  0  0  0  0  0  0  0  0  0  0  0
    3.5611    5.1180    0.0000 H   0  0  0  0  0  0  0  0  0  0  0  0
    3.7881    4.2711    0.0000 H   0  0  0  0  0  0  0  0  0  0  0  0
    5.1350    0.2520    0.0000 H   0  0  0  0  0  0  0  0  0  0  0  0
    5.1541   -1.0949    0.0000 H   0  0  0  0  0  0  0  0  0  0  0  0
    6.0010   -0.8680    0.0000 H   0  0  0  0  0  0  0  0  0  0  0  0
    5.7741   -0.0211    0.0000 H   0  0  0  0  0  0  0  0  0  0  0  0
    7.7060    4.3514    0.0000 H   0  0  0  0  0  0  0  0  0  0  0  0
    2.6540   -1.4754    0.0000 H   0  0  0  0  0  0  0  0  0  0  0  0
    2.2554   -2.1656    0.0000 H   0  0  0  0  0  0  0  0  0  0  0  0
   10.1180    4.8058    0.0000 H   0  0  0  0  0  0  0  0  0  0  0  0
    9.8038    5.6244    0.0000 H   0  0  0  0  0  0  0  0  0  0  0  0
    8.9852    5.3102    0.0000 H   0  0  0  0  0  0  0  0  0  0  0  0
    1.4631   -3.2480    0.0000 H   0  0  0  0  0  0  0  0  0  0  0  0
    4.2690   -3.2480    0.0000 H   0  0  0  0  0  0  0  0  0  0  0  0
    1.4631   -4.8680    0.0000 H   0  0  0  0  0  0  0  0  0  0  0  0
    4.2690   -4.8680    0.0000 H   0  0  0  0  0  0  0  0  0  0  0  0
    2.8660   -5.6780    0.0000 H   0  0  0  0  0  0  0  0  0  0  0  0
  1 11  1  0  0  0  0
  1 15  1  0  0  0  0
  2 13  2  0  0  0  0
  3 14  2  0  0  0  0
  4 19  1  0  0  0  0
  4 22  1  0  0  0  0
  5  9  1  0  0  0  0
  5 21  1  0  0  0  0
  6 19  2  0  0  0  0
  7 10  1  0  0  0  0
  7 14  1  0  0  0  0
  7 33  1  0  0  0  0
  8 13  1  0  0  0  0
 16  8  1  1  0  0  0
  8 34  1  0  0  0  0
  9 17  2  0  0  0  0
 10 11  1  0  0  0  0
 10 12  1  0  0  0  0
 10 13  1  0  0  0  0
 11 12  1  0  0  0  0
 11 30  1  0  0  0  0
 12 31  1  0  0  0  0
 12 32  1  0  0  0  0
 14 17  1  0  0  0  0
 15 35  1  0  0  0  0
 15 36  1  0  0  0  0
 15 37  1  0  0  0  0
 16 18  1  0  0  0  0
 16 19  1  0  0  0  0
 16 38  1  0  0  0  0
 17 20  1  0  0  0  0
 18 39  1  0  0  0  0
 18 40  1  0  0  0  0
 18 41  1  0  0  0  0
 20 21  2  0  0  0  0
 20 42  1  0  0  0  0
 21 23  1  0  0  0  0
 22 24  1  0  0  0  0
 22 43  1  0  0  0  0
 22 44  1  0  0  0  0
 23 45  1  0  0  0  0
 23 46  1  0  0  0  0
 23 47  1  0  0  0  0
 24 25  2  0  0  0  0
 24 26  1  0  0  0  0
 25 27  1  0  0  0  0
 25 48  1  0  0  0  0
 26 28  2  0  0  0  0
 26 49  1  0  0  0  0
 27 29  2  0  0  0  0
 27 50  1  0  0  0  0
 28 29  1  0  0  0  0
 28 51  1  0  0  0  0
 29 52  1  0  0  0  0
M  END
> <PUBCHEM_COMPOUND_CID>
145514762

> <PUBCHEM_COMPOUND_CANONICALIZED>
1

> <PUBCHEM_CACTVS_COMPLEXITY>
623

> <PUBCHEM_CACTVS_HBOND_ACCEPTOR>
7

> <PUBCHEM_CACTVS_HBOND_DONOR>
2

> <PUBCHEM_CACTVS_ROTATABLE_BOND>
9

> <PUBCHEM_CACTVS_SUBSKEYS>
AAADceB7OAAAAAAAAAAAAAAAGAAAAWAAAAAwAAAAAAAAAAABwAAAHgAUAAAADLzhngYyjJLQBACpA6XyWgCCAAAmIgAomKG+bNoKZj6AtbuXMYhm9hmY6ce/wCAOAAAAAAAAAAAAAAAAAAAAAAAAAAAAAA==

> <PUBCHEM_IUPAC_OPENEYE_NAME>
benzyl (2S)-2-[[2-methoxy-1-[(5-methylisoxazole-3-carbonyl)amino]cyclopropanecarbonyl]amino]propanoate

> <PUBCHEM_IUPAC_CAS_NAME>
(2S)-2-[[[2-methoxy-1-[[(5-methyl-3-isoxazolyl)-oxomethyl]amino]cyclopropyl]-oxomethyl]amino]propanoic acid (phenylmethyl) ester

> <PUBCHEM_IUPAC_NAME_MARKUP>
benzyl (2<I>S</I>)-2-[[2-methoxy-1-[(5-methyl-1,2-oxazole-3-carbonyl)amino]cyclopropanecarbonyl]amino]propanoate

> <PUBCHEM_IUPAC_NAME>
benzyl (2S)-2-[[2-methoxy-1-[(5-methyl-1,2-oxazole-3-carbonyl)amino]cyclopropanecarbonyl]amino]propanoate

> <PUBCHEM_IUPAC_SYSTEMATIC_NAME>
(phenylmethyl) (2S)-2-[[2-methoxy-1-[(5-methyl-1,2-oxazol-3-yl)carbonylamino]cyclopropyl]carbonylamino]propanoate

> <PUBCHEM_IUPAC_TRADITIONAL_NAME>
(2S)-2-[[2-methoxy-1-[(5-methylisoxazole-3-carbonyl)amino]cyclopropanecarbonyl]amino]propionic acid benzyl ester

> <PUBCHEM_IUPAC_INCHI>
InChI=1S/C20H23N3O6/c1-12-9-15(23-29-12)17(24)22-20(10-16(20)27-3)19(26)21-13(2)18(25)28-11-14-7-5-4-6-8-14/h4-9,13,16H,10-11H2,1-3H3,(H,21,26)(H,22,24)/t13-,16?,20?/m0/s1

> <PUBCHEM_IUPAC_INCHIKEY>
AWPWWZYAPYJPNX-CZTOGXCSSA-N

> <PUBCHEM_XLOGP3_AA>
1.4

> <PUBCHEM_EXACT_MASS>
401.158685

> <PUBCHEM_MOLECULAR_FORMULA>
C20H23N3O6

> <PUBCHEM_MOLECULAR_WEIGHT>
401.4

> <PUBCHEM_OPENEYE_CAN_SMILES>
CC1=CC(=NO1)C(=O)NC2(CC2OC)C(=O)NC(C)C(=O)OCC3=CC=CC=C3

> <PUBCHEM_OPENEYE_ISO_SMILES>
CC1=CC(=NO1)C(=O)NC2(CC2OC)C(=O)N[C@@H](C)C(=O)OCC3=CC=CC=C3

> <PUBCHEM_CACTVS_TPSA>
120

> <PUBCHEM_MONOISOTOPIC_WEIGHT>
401.158685

> <PUBCHEM_TOTAL_CHARGE>
0

> <PUBCHEM_HEAVY_ATOM_COUNT>
29

> <PUBCHEM_ATOM_DEF_STEREO_COUNT>
1

> <PUBCHEM_ATOM_UDEF_STEREO_COUNT>
2

> <PUBCHEM_BOND_DEF_STEREO_COUNT>
0

> <PUBCHEM_BOND_UDEF_STEREO_COUNT>
0

> <PUBCHEM_ISOTOPIC_ATOM_COUNT>
0

> <PUBCHEM_COMPONENT_COUNT>
1

> <PUBCHEM_CACTVS_TAUTO_COUNT>
-1

> <PUBCHEM_COORDINATE_TYPE>
1
5
255

> <PUBCHEM_BONDANNOTATIONS>
11  1  3
10  13  3
17  20  8
20  21  8
24  25  8
24  26  8
25  27  8
26  28  8
27  29  8
28  29  8
5  21  8
5  9  8
16  8  5
9  17  8

$$$$
145865291
  -OEChem-02212016592D

102104  0     1  0  0  0  0  0999 V2000
   10.5109    0.6920    0.0000 S   0  0  0  0  0  0  0  0  0  0  0  0
   13.3364    2.3557    0.0000 O   0  0  0  0  0  0  0  0  0  0  0  0
   10.5109    1.6920    0.0000 O   0  0  0  0  0  0  0  0  0  0  0  0
   10.5109   -2.3080    0.0000 O   0  0  0  0  0  0  0  0  0  0  0  0
    9.6448   -0.8080    0.0000 O   0  0  0  0  0  0  0  0  0  0  0  0
    9.6448    2.1920    0.0000 O   0  0  0  0  0  0  0  0  0  0  0  0
    7.0468    4.6920    0.0000 O   0  0  0  0  0  0  0  0  0  0  0  0
    4.4487    2.1920    0.0000 O   0  0  0  0  0  0  0  0  0  0  0  0
    2.0000    4.0284    0.0000 O   0  0  0  0  0  0  0  0  0  0  0  0
   15.0577    1.8944    0.0000 N   0  0  0  0  0  0  0  0  0  0  0  0
   12.2429    1.6920    0.0000 N   0  0  0  0  0  0  0  0  0  0  0  0
   10.5109    3.6920    0.0000 N   0  0  0  0  0  0  0  0  0  0  0  0
    7.9128    3.1920    0.0000 N   0  0  0  0  0  0  0  0  0  0  0  0
    5.3147    3.6920    0.0000 N   0  0  0  0  0  0  0  0  0  0  0  0
    2.6691    3.2853    0.0000 N   0  0  0  0  0  0  0  0  0  0  0  0
   13.9750    0.6920    0.0000 C   0  0  2  0  0  0  0  0  0  0  0  0
   13.1090    0.1920    0.0000 C   0  0  0  0  0  0  0  0  0  0  0  0
   14.8885    0.2853    0.0000 C   0  0  0  0  0  0  0  0  0  0  0  0
   14.0795    1.6865    0.0000 C   0  0  1  0  0  0  0  0  0  0  0  0
   12.2429    0.6920    0.0000 C   0  0  1  0  0  0  0  0  0  0  0  0
   15.5577    1.0284    0.0000 C   0  0  0  0  0  0  0  0  0  0  0  0
   11.3769    0.1920    0.0000 C   0  0  2  0  0  0  0  0  0  0  0  0
   11.3769   -0.8080    0.0000 C   0  0  0  0  0  0  0  0  0  0  0  0
   11.3769    2.1920    0.0000 C   0  0  0  0  0  0  0  0  0  0  0  0
   11.3769    3.1920    0.0000 C   0  0  2  0  0  0  0  0  0  0  0  0
   12.2429    3.6920    0.0000 C   0  0  0  0  0  0  0  0  0  0  0  0
   12.2429    4.6920    0.0000 C   0  0  0  0  0  0  0  0  0  0  0  0
   10.5109   -1.3080    0.0000 C   0  0  0  0  0  0  0  0  0  0  0  0
    8.7788    3.6920    0.0000 C   0  0  2  0  0  0  0  0  0  0  0  0
    9.6448    3.1920    0.0000 C   0  0  0  0  0  0  0  0  0  0  0  0
   13.1090    5.1920    0.0000 C   0  0  0  0  0  0  0  0  0  0  0  0
   11.3769    5.1920    0.0000 C   0  0  0  0  0  0  0  0  0  0  0  0
    8.7788    4.6920    0.0000 C   0  0  0  0  0  0  0  0  0  0  0  0
    7.9128    5.1920    0.0000 C   0  0  0  0  0  0  0  0  0  0  0  0
    9.6448    5.1920    0.0000 C   0  0  0  0  0  0  0  0  0  0  0  0
    9.6448   -2.8080    0.0000 C   0  0  0  0  0  0  0  0  0  0  0  0
    7.0468    3.6920    0.0000 C   0  0  0  0  0  0  0  0  0  0  0  0
    6.1808    3.1920    0.0000 C   0  0  2  0  0  0  0  0  0  0  0  0
    9.6448   -3.8080    0.0000 C   0  0  0  0  0  0  0  0  0  0  0  0
    6.1808    2.1920    0.0000 C   0  0  0  0  0  0  0  0  0  0  0  0
   10.5109   -4.3080    0.0000 C   0  0  0  0  0  0  0  0  0  0  0  0
    8.7788   -4.3080    0.0000 C   0  0  0  0  0  0  0  0  0  0  0  0
    4.4487    3.1920    0.0000 C   0  0  0  0  0  0  0  0  0  0  0  0
   10.5109   -5.3080    0.0000 C   0  0  0  0  0  0  0  0  0  0  0  0
    8.7788   -5.3080    0.0000 C   0  0  0  0  0  0  0  0  0  0  0  0
    9.6448   -5.8080    0.0000 C   0  0  0  0  0  0  0  0  0  0  0  0
    3.5827    3.6920    0.0000 C   0  0  0  0  0  0  0  0  0  0  0  0
    3.4782    4.6865    0.0000 C   0  0  0  0  0  0  0  0  0  0  0  0
    2.5000    4.8944    0.0000 C   0  0  0  0  0  0  0  0  0  0  0  0
    2.0933    5.8080    0.0000 C   0  0  0  0  0  0  0  0  0  0  0  0
   14.0074    0.0729    0.0000 H   0  0  0  0  0  0  0  0  0  0  0  0
   12.7104   -0.2829    0.0000 H   0  0  0  0  0  0  0  0  0  0  0  0
   13.5075   -0.2829    0.0000 H   0  0  0  0  0  0  0  0  0  0  0  0
   14.5785   -0.2517    0.0000 H   0  0  0  0  0  0  0  0  0  0  0  0
   15.3901   -0.0792    0.0000 H   0  0  0  0  0  0  0  0  0  0  0  0
   14.2400    2.2854    0.0000 H   0  0  0  0  0  0  0  0  0  0  0  0
   12.7799    1.0020    0.0000 H   0  0  0  0  0  0  0  0  0  0  0  0
   15.9725    0.5677    0.0000 H   0  0  0  0  0  0  0  0  0  0  0  0
   16.0592    1.3928    0.0000 H   0  0  0  0  0  0  0  0  0  0  0  0
   15.3098    2.4608    0.0000 H   0  0  0  0  0  0  0  0  0  0  0  0
   10.8400   -0.1180    0.0000 H   0  0  0  0  0  0  0  0  0  0  0  0
   12.7799    2.0020    0.0000 H   0  0  0  0  0  0  0  0  0  0  0  0
   11.5890   -1.3906    0.0000 H   0  0  0  0  0  0  0  0  0  0  0  0
   11.9875   -0.7003    0.0000 H   0  0  0  0  0  0  0  0  0  0  0  0
   13.4653    2.9621    0.0000 H   0  0  0  0  0  0  0  0  0  0  0  0
   10.8400    2.8820    0.0000 H   0  0  0  0  0  0  0  0  0  0  0  0
   12.4550    3.1094    0.0000 H   0  0  0  0  0  0  0  0  0  0  0  0
   12.8535    3.7997    0.0000 H   0  0  0  0  0  0  0  0  0  0  0  0
    9.9739    0.3820    0.0000 H   0  0  0  0  0  0  0  0  0  0  0  0
   12.7799    4.3820    0.0000 H   0  0  0  0  0  0  0  0  0  0  0  0
   10.5109    4.3120    0.0000 H   0  0  0  0  0  0  0  0  0  0  0  0
    8.2419    4.0020    0.0000 H   0  0  0  0  0  0  0  0  0  0  0  0
   13.4190    4.6551    0.0000 H   0  0  0  0  0  0  0  0  0  0  0  0
   13.6459    5.5020    0.0000 H   0  0  0  0  0  0  0  0  0  0  0  0
   12.7990    5.7290    0.0000 H   0  0  0  0  0  0  0  0  0  0  0  0
   11.6869    5.7290    0.0000 H   0  0  0  0  0  0  0  0  0  0  0  0
   10.8400    5.5020    0.0000 H   0  0  0  0  0  0  0  0  0  0  0  0
   11.0669    4.6551    0.0000 H   0  0  0  0  0  0  0  0  0  0  0  0
    9.3158    4.3820    0.0000 H   0  0  0  0  0  0  0  0  0  0  0  0
    7.9128    2.5720    0.0000 H   0  0  0  0  0  0  0  0  0  0  0  0
    8.2228    5.7290    0.0000 H   0  0  0  0  0  0  0  0  0  0  0  0
    7.3759    5.5020    0.0000 H   0  0  0  0  0  0  0  0  0  0  0  0
    7.6028    4.6551    0.0000 H   0  0  0  0  0  0  0  0  0  0  0  0
    9.9548    4.6551    0.0000 H   0  0  0  0  0  0  0  0  0  0  0  0
   10.1818    5.5020    0.0000 H   0  0  0  0  0  0  0  0  0  0  0  0
    9.3348    5.7290    0.0000 H   0  0  0  0  0  0  0  0  0  0  0  0
    9.4328   -2.2254    0.0000 H   0  0  0  0  0  0  0  0  0  0  0  0
    9.0343   -2.9156    0.0000 H   0  0  0  0  0  0  0  0  0  0  0  0
    6.1808    3.8120    0.0000 H   0  0  0  0  0  0  0  0  0  0  0  0
    5.5608    2.1920    0.0000 H   0  0  0  0  0  0  0  0  0  0  0  0
    6.1808    1.5720    0.0000 H   0  0  0  0  0  0  0  0  0  0  0  0
    6.8008    2.1920    0.0000 H   0  0  0  0  0  0  0  0  0  0  0  0
    5.3147    4.3120    0.0000 H   0  0  0  0  0  0  0  0  0  0  0  0
   11.0478   -3.9980    0.0000 H   0  0  0  0  0  0  0  0  0  0  0  0
    8.2419   -3.9980    0.0000 H   0  0  0  0  0  0  0  0  0  0  0  0
   11.0478   -5.6180    0.0000 H   0  0  0  0  0  0  0  0  0  0  0  0
    8.2419   -5.6180    0.0000 H   0  0  0  0  0  0  0  0  0  0  0  0
    9.6448   -6.4280    0.0000 H   0  0  0  0  0  0  0  0  0  0  0  0
    3.9389    5.1014    0.0000 H   0  0  0  0  0  0  0  0  0  0  0  0
    2.6597    6.0602    0.0000 H   0  0  0  0  0  0  0  0  0  0  0  0
    1.8411    6.3744    0.0000 H   0  0  0  0  0  0  0  0  0  0  0  0
    1.5269    5.5558    0.0000 H   0  0  0  0  0  0  0  0  0  0  0  0
 22  1  1  6  0  0  0
  1 69  1  0  0  0  0
 19  2  1  1  0  0  0
  2 65  1  0  0  0  0
  3 24  2  0  0  0  0
  4 28  1  0  0  0  0
  4 36  1  0  0  0  0
  5 28  2  0  0  0  0
  6 30  2  0  0  0  0
  7 37  2  0  0  0  0
  8 43  2  0  0  0  0
  9 15  1  0  0  0  0
  9 49  1  0  0  0  0
 10 19  1  0  0  0  0
 10 21  1  0  0  0  0
 10 60  1  0  0  0  0
 20 11  1  1  0  0  0
 11 24  1  0  0  0  0
 11 62  1  0  0  0  0
 25 12  1  1  0  0  0
 12 30  1  0  0  0  0
 12 71  1  0  0  0  0
 29 13  1  1  0  0  0
 13 37  1  0  0  0  0
 13 80  1  0  0  0  0
 38 14  1  6  0  0  0
 14 43  1  0  0  0  0
 14 93  1  0  0  0  0
 15 47  2  0  0  0  0
 16 17  1  1  0  0  0
 16 18  1  0  0  0  0
 16 19  1  0  0  0  0
 16 51  1  0  0  0  0
 17 20  1  0  0  0  0
 17 52  1  0  0  0  0
 17 53  1  0  0  0  0
 18 21  1  0  0  0  0
 18 54  1  0  0  0  0
 18 55  1  0  0  0  0
 19 56  1  0  0  0  0
 20 22  1  0  0  0  0
 20 57  1  0  0  0  0
 21 58  1  0  0  0  0
 21 59  1  0  0  0  0
 22 23  1  0  0  0  0
 22 61  1  0  0  0  0
 23 28  1  0  0  0  0
 23 63  1  0  0  0  0
 23 64  1  0  0  0  0
 24 25  1  0  0  0  0
 25 26  1  0  0  0  0
 25 66  1  0  0  0  0
 26 27  1  0  0  0  0
 26 67  1  0  0  0  0
 26 68  1  0  0  0  0
 27 31  1  0  0  0  0
 27 32  1  0  0  0  0
 27 70  1  0  0  0  0
 29 30  1  0  0  0  0
 29 33  1  0  0  0  0
 29 72  1  0  0  0  0
 31 73  1  0  0  0  0
 31 74  1  0  0  0  0
 31 75  1  0  0  0  0
 32 76  1  0  0  0  0
 32 77  1  0  0  0  0
 32 78  1  0  0  0  0
 33 34  1  0  0  0  0
 33 35  1  0  0  0  0
 33 79  1  0  0  0  0
 34 81  1  0  0  0  0
 34 82  1  0  0  0  0
 34 83  1  0  0  0  0
 35 84  1  0  0  0  0
 35 85  1  0  0  0  0
 35 86  1  0  0  0  0
 36 39  1  0  0  0  0
 36 87  1  0  0  0  0
 36 88  1  0  0  0  0
 37 38  1  0  0  0  0
 38 40  1  0  0  0  0
 38 89  1  0  0  0  0
 39 41  2  0  0  0  0
 39 42  1  0  0  0  0
 40 90  1  0  0  0  0
 40 91  1  0  0  0  0
 40 92  1  0  0  0  0
 41 44  1  0  0  0  0
 41 94  1  0  0  0  0
 42 45  2  0  0  0  0
 42 95  1  0  0  0  0
 43 47  1  0  0  0  0
 44 46  2  0  0  0  0
 44 96  1  0  0  0  0
 45 46  1  0  0  0  0
 45 97  1  0  0  0  0
 46 98  1  0  0  0  0
 47 48  1  0  0  0  0
 48 49  2  0  0  0  0
 48 99  1  0  0  0  0
 49 50  1  0  0  0  0
 50100  1  0  0  0  0
 50101  1  0  0  0  0
 50102  1  0  0  0  0
M  END
> <PUBCHEM_COMPOUND_CID>
145865291

> <PUBCHEM_COMPOUND_CANONICALIZED>
1

> <PUBCHEM_CACTVS_COMPLEXITY>
1140

> <PUBCHEM_CACTVS_HBOND_ACCEPTOR>
11

> <PUBCHEM_CACTVS_HBOND_DONOR>
7

> <PUBCHEM_CACTVS_ROTATABLE_BOND>
19

> <PUBCHEM_CACTVS_SUBSKEYS>
AAADcfB/vABAAAAAAAAAAAAAAAAAAWLAAAAwAAAAAAAAAAABwAAAHgQUCAAADSzl3gayjJLQBgSpA6XyWgCCAAAmIgAomKG+bNsIdjqAtbuWcYhm1hmI6ce/yOCOAAAAAAAAAAAAAAAAAAAAAAAAAAAAAA==

> <PUBCHEM_IUPAC_OPENEYE_NAME>
benzyl (3S,4S)-5-[(2R,3S)-2-hydroxypyrrolidin-3-yl]-4-[[(2S)-4-methyl-2-[[(2S)-3-methyl-2-[[(2S)-2-[(5-methylisoxazole-3-carbonyl)amino]propanoyl]amino]butanoyl]amino]pentanoyl]amino]-3-sulfanyl-pentanoate

> <PUBCHEM_IUPAC_CAS_NAME>
(3S,4S)-5-[(2R,3S)-2-hydroxy-3-pyrrolidinyl]-3-mercapto-4-[[(2S)-4-methyl-2-[[(2S)-3-methyl-2-[[(2S)-2-[[(5-methyl-3-isoxazolyl)-oxomethyl]amino]-1-oxopropyl]amino]-1-oxobutyl]amino]-1-oxopentyl]amino]pentanoic acid (phenylmethyl) ester

> <PUBCHEM_IUPAC_NAME_MARKUP>
benzyl (3<I>S</I>,4<I>S</I>)-5-[(2<I>R</I>,3<I>S</I>)-2-hydroxypyrrolidin-3-yl]-4-[[(2<I>S</I>)-4-methyl-2-[[(2<I>S</I>)-3-methyl-2-[[(2<I>S</I>)-2-[(5-methyl-1,2-oxazole-3-carbonyl)amino]propanoyl]amino]butanoyl]amino]pentanoyl]amino]-3-sulfanylpentanoate

> <PUBCHEM_IUPAC_NAME>
benzyl (3S,4S)-5-[(2R,3S)-2-hydroxypyrrolidin-3-yl]-4-[[(2S)-4-methyl-2-[[(2S)-3-methyl-2-[[(2S)-2-[(5-methyl-1,2-oxazole-3-carbonyl)amino]propanoyl]amino]butanoyl]amino]pentanoyl]amino]-3-sulfanylpentanoate

> <PUBCHEM_IUPAC_SYSTEMATIC_NAME>
(phenylmethyl) (3S,4S)-4-[[(2S)-4-methyl-2-[[(2S)-3-methyl-2-[[(2S)-2-[(5-methyl-1,2-oxazol-3-yl)carbonylamino]propanoyl]amino]butanoyl]amino]pentanoyl]amino]-5-[(2R,3S)-2-oxidanylpyrrolidin-3-yl]-3-sulfanyl-pentanoate

> <PUBCHEM_IUPAC_TRADITIONAL_NAME>
(3S,4S)-5-[(2R,3S)-2-hydroxypyrrolidin-3-yl]-3-mercapto-4-[[(2S)-4-methyl-2-[[(2S)-3-methyl-2-[[(2S)-2-[(5-methylisoxazole-3-carbonyl)amino]propanoyl]amino]butanoyl]amino]pentanoyl]amino]valeric acid benzyl ester

> <PUBCHEM_IUPAC_INCHI>
InChI=1S/C35H52N6O8S/c1-19(2)14-26(39-35(47)30(20(3)4)40-31(43)22(6)37-34(46)27-15-21(5)49-41-27)33(45)38-25(16-24-12-13-36-32(24)44)28(50)17-29(42)48-18-23-10-8-7-9-11-23/h7-11,15,19-20,22,24-26,28,30,32,36,44,50H,12-14,16-18H2,1-6H3,(H,37,46)(H,38,45)(H,39,47)(H,40,43)/t22-,24-,25-,26-,28-,30-,32+/m0/s1

> <PUBCHEM_IUPAC_INCHIKEY>
ZFBJBSRQHSPOKY-BFVWGAKVSA-N

> <PUBCHEM_XLOGP3_AA>
3.4

> <PUBCHEM_EXACT_MASS>
716.356734

> <PUBCHEM_MOLECULAR_FORMULA>
C35H52N6O8S

> <PUBCHEM_MOLECULAR_WEIGHT>
716.9

> <PUBCHEM_OPENEYE_CAN_SMILES>
CC1=CC(=NO1)C(=O)NC(C)C(=O)NC(C(C)C)C(=O)NC(CC(C)C)C(=O)NC(CC2CCNC2O)C(CC(=O)OCC3=CC=CC=C3)S

> <PUBCHEM_OPENEYE_ISO_SMILES>
CC1=CC(=NO1)C(=O)N[C@@H](C)C(=O)N[C@@H](C(C)C)C(=O)N[C@@H](CC(C)C)C(=O)N[C@@H](C[C@@H]2CCN[C@@H]2O)[C@H](CC(=O)OCC3=CC=CC=C3)S

> <PUBCHEM_CACTVS_TPSA>
202

> <PUBCHEM_MONOISOTOPIC_WEIGHT>
716.356734

> <PUBCHEM_TOTAL_CHARGE>
0

> <PUBCHEM_HEAVY_ATOM_COUNT>
50

> <PUBCHEM_ATOM_DEF_STEREO_COUNT>
7

> <PUBCHEM_ATOM_UDEF_STEREO_COUNT>
0

> <PUBCHEM_BOND_DEF_STEREO_COUNT>
0

> <PUBCHEM_BOND_UDEF_STEREO_COUNT>
0

> <PUBCHEM_ISOTOPIC_ATOM_COUNT>
0

> <PUBCHEM_COMPONENT_COUNT>
1

> <PUBCHEM_CACTVS_TAUTO_COUNT>
-1

> <PUBCHEM_COORDINATE_TYPE>
1
5
255

> <PUBCHEM_BONDANNOTATIONS>
22  1  6
20  11  5
25  12  5
29  13  5
38  14  6
15  47  8
16  17  5
19  2  5
39  41  8
39  42  8
41  44  8
42  45  8
44  46  8
45  46  8
47  48  8
48  49  8
9  15  8
9  49  8

$$$$
